@<TRIPOS>MOLECULE
*****
 31 34 0 0 0
SMALL
GASTEIGER

@<TRIPOS>ATOM
      1 C          64.0644   90.3363   13.5333 C.3     1  UNL1        0.0477
      2 N          68.0762   92.2357   16.2349 N.pl3   1  UNL1       -0.3441
      3 C          67.2380   92.2214   14.9910 C.ar    1  UNL1        0.1035
      4 C          66.0704   91.2860   14.8841 C.ar    1  UNL1        0.0296
      5 C          65.2322   91.2717   13.6401 C.ar    1  UNL1        0.0068
      6 C          65.5619   92.1928   12.5031 C.ar    1  UNL1        0.1365
      7 N          64.9218   92.4017   11.1627 N.ar    1  UNL1       -0.1258
      8 N          65.6940   93.4662   10.4412 N.ar    1  UNL1       -0.0406
      9 N          66.8113   93.9152   11.3356 N.ar    1  UNL1       -0.1095
     10 C          66.7296   93.1282   12.6100 C.ar    1  UNL1        0.1838
     11 N          67.5677   93.1425   13.8539 N.ar    1  UNL1       -0.3249
     12 H          67.8599   91.6311   16.9813 H       1  UNL1        0.1437
     13 H          68.8426   92.8496   16.3051 H       1  UNL1        0.1437
     14 H          68.3342   93.7564   13.9241 H       1  UNL1        0.1686
     15 C          63.8780   89.2502   14.5510 C.ar    1  UNL1       -0.0183
     16 C          63.2349   89.5609   15.8701 C.ar    1  UNL1       -0.0040
     17 C          63.0484   88.4749   16.8878 C.ar    1  UNL1       -0.0003
     18 C          63.5051   87.0782   16.5864 C.ar    1  UNL1       -0.0000
     19 C          64.1482   86.7675   15.2674 C.ar    1  UNL1       -0.0003
     20 C          64.3346   87.8536   14.2497 C.ar    1  UNL1       -0.0040
     21 C          63.0832   90.4869   12.4088 C.3     1  UNL1        0.0259
     22 C          62.7052   89.2960   11.5788 C.3     1  UNL1        0.0695
     23 N          61.4034   88.5929   11.8253 N.3     1  UNL1       -0.2937
     24 H          60.6861   89.3152   11.8894 H       1  UNL1        0.1236
     25 C          60.9044   87.5729   10.8451 C.3     1  UNL1        0.0956
     26 C          61.7700   86.4067   10.4702 C.ar    1  UNL1       -0.0064
     27 C          62.1711   85.4049   11.5121 C.ar    1  UNL1       -0.0029
     28 C          63.0367   84.2387   11.1373 C.ar    1  UNL1       -0.0003
     29 C          63.5013   84.0742    9.7206 C.ar    1  UNL1       -0.0000
     30 C          63.1003   85.0760    8.6787 C.ar    1  UNL1       -0.0003
     31 C          62.2346   86.2423    9.0535 C.ar    1  UNL1       -0.0029
@<TRIPOS>BOND
     1     2     3    1
     2     3     4   ar
     3     4     5   ar
     4     5     1    1
     5     1    21    1
     6    21    22    1
     7    22    23    1
     8    23    25    1
     9    25    26    1
    10    26    27   ar
    11    27    28   ar
    12    28    29   ar
    13    29    30   ar
    14    30    31   ar
    15     1    15    1
    16    15    16   ar
    17    16    17   ar
    18    17    18   ar
    19    18    19   ar
    20    19    20   ar
    21     5     6   ar
    22     6     7   ar
    23     7     8   ar
    24     8     9   ar
    25     9    10   ar
    26    10    11   ar
    27    11     3   ar
    28    31    26   ar
    29    20    15   ar
    30    10     6    1
    31     2    12    1
    32     2    13    1
    33    23    24    1
    34    11    14    1
@<TRIPOS>MOLECULE
*****
 31 34 0 0 0
SMALL
GASTEIGER

@<TRIPOS>ATOM
      1 C          62.2504   86.4837   10.7956 C.3     1  UNL1        0.0477
      2 N          62.6968   81.5953   12.5001 N.pl3   1  UNL1       -0.3441
      3 C          62.9163   83.0658   12.6994 C.ar    1  UNL1        0.1035
      4 C          62.4736   84.0395   11.6479 C.ar    1  UNL1        0.0296
      5 C          62.6931   85.5100   11.8472 C.ar    1  UNL1        0.0068
      6 C          63.3554   86.0065   13.0982 C.ar    1  UNL1        0.1365
      7 N          63.7027   87.3875   13.5695 N.ar    1  UNL1       -0.1258
      8 N          64.3601   87.2673   14.9124 N.ar    1  UNL1       -0.0406
      9 N          64.4190   85.8119   15.2710 N.ar    1  UNL1       -0.1095
     10 C          63.7981   85.0328   14.1497 C.ar    1  UNL1        0.1838
     11 N          63.5785   83.5624   13.9504 N.ar    1  UNL1       -0.3249
     12 H          62.2622   81.2693   11.6791 H       1  UNL1        0.1437
     13 H          62.9874   80.9562   13.1903 H       1  UNL1        0.1437
     14 H          63.8691   82.9233   14.6405 H       1  UNL1        0.1686
     15 C          61.9463   86.0020    9.4080 C.ar    1  UNL1       -0.0183
     16 C          60.5692   86.1749    8.8391 C.ar    1  UNL1       -0.0040
     17 C          60.2651   85.6933    7.4514 C.ar    1  UNL1       -0.0003
     18 C          61.3381   85.0387    6.6327 C.ar    1  UNL1       -0.0000
     19 C          62.7152   84.8658    7.2017 C.ar    1  UNL1       -0.0003
     20 C          63.0193   85.3475    8.5893 C.ar    1  UNL1       -0.0040
     21 C          62.1118   87.9389   11.1316 C.3     1  UNL1        0.0259
     22 C          62.2613   88.9744   10.0567 C.3     1  UNL1        0.0695
     23 N          62.0591   90.4252   10.3794 N.3     1  UNL1       -0.2937
     24 H          61.7500   90.4705   11.3505 H       1  UNL1        0.1236
     25 C          63.1993   91.3901   10.2425 C.3     1  UNL1        0.0956
     26 C          64.1712   91.5678   11.3711 C.ar    1  UNL1       -0.0064
     27 C          63.9265   90.8876   12.6855 C.ar    1  UNL1       -0.0029
     28 C          64.8983   91.0652   13.8142 C.ar    1  UNL1       -0.0003
     29 C          66.1147   91.9231   13.6286 C.ar    1  UNL1       -0.0000
     30 C          66.3593   92.6033   12.3143 C.ar    1  UNL1       -0.0003
     31 C          65.3876   92.4256   11.1855 C.ar    1  UNL1       -0.0029
@<TRIPOS>BOND
     1     2     3    1
     2     3     4   ar
     3     4     5   ar
     4     5     1    1
     5     1    21    1
     6    21    22    1
     7    22    23    1
     8    23    25    1
     9    25    26    1
    10    26    27   ar
    11    27    28   ar
    12    28    29   ar
    13    29    30   ar
    14    30    31   ar
    15     1    15    1
    16    15    16   ar
    17    16    17   ar
    18    17    18   ar
    19    18    19   ar
    20    19    20   ar
    21     5     6   ar
    22     6     7   ar
    23     7     8   ar
    24     8     9   ar
    25     9    10   ar
    26    10    11   ar
    27    11     3   ar
    28    31    26   ar
    29    20    15   ar
    30    10     6    1
    31     2    12    1
    32     2    13    1
    33    23    24    1
    34    11    14    1
@<TRIPOS>MOLECULE
*****
 31 34 0 0 0
SMALL
GASTEIGER

@<TRIPOS>ATOM
      1 C          65.4290   92.2327   12.0361 C.3     1  UNL1        0.0477
      2 N          68.3281   94.1373   15.9050 N.pl3   1  UNL1       -0.3441
      3 C          67.1417   93.3467   15.4384 C.ar    1  UNL1        0.1035
      4 C          66.8785   93.1850   13.9706 C.ar    1  UNL1        0.0296
      5 C          65.6922   92.3944   13.5040 C.ar    1  UNL1        0.0068
      6 C          64.7691   91.7657   14.5053 C.ar    1  UNL1        0.1365
      7 N          63.5295   90.9364   14.3452 N.ar    1  UNL1       -0.1258
      8 N          63.0266   90.5856   15.7142 N.ar    1  UNL1       -0.0406
      9 N          63.9554   91.1981   16.7203 N.ar    1  UNL1       -0.1095
     10 C          65.0323   91.9275   15.9731 C.ar    1  UNL1        0.1838
     11 N          66.2187   92.7180   16.4397 N.ar    1  UNL1       -0.3249
     12 H          68.9340   94.5500   15.2479 H       1  UNL1        0.1437
     13 H          68.5008   94.2434   16.8684 H       1  UNL1        0.1437
     14 H          66.3914   92.8241   17.4030 H       1  UNL1        0.1686
     15 C          66.2737   92.9670   11.0374 C.ar    1  UNL1       -0.0183
     16 C          67.4197   92.2690   10.3671 C.ar    1  UNL1       -0.0040
     17 C          68.2644   93.0033    9.3684 C.ar    1  UNL1       -0.0003
     18 C          67.9630   94.4356    9.0400 C.ar    1  UNL1       -0.0000
     19 C          66.8169   95.1335    9.7103 C.ar    1  UNL1       -0.0003
     20 C          65.9722   94.3992   10.7090 C.ar    1  UNL1       -0.0040
     21 C          64.3213   91.3368   11.5670 C.3     1  UNL1        0.0259
     22 C          63.5689   91.6683   10.3124 C.3     1  UNL1        0.0695
     23 N          62.3383   90.8918    9.9484 N.3     1  UNL1       -0.2937
     24 H          62.3005   90.8605    8.9296 H       1  UNL1        0.1236
     25 C          62.1711   89.4815   10.4314 C.3     1  UNL1        0.0956
     26 C          61.4448   88.4796    9.5836 C.ar    1  UNL1       -0.0064
     27 C          61.9643   87.0771    9.4693 C.ar    1  UNL1       -0.0029
     28 C          61.2380   86.0751    8.6216 C.ar    1  UNL1       -0.0003
     29 C          59.9924   86.4756    7.8883 C.ar    1  UNL1       -0.0000
     30 C          59.4729   87.8782    8.0026 C.ar    1  UNL1       -0.0003
     31 C          60.1991   88.8802    8.8503 C.ar    1  UNL1       -0.0029
@<TRIPOS>BOND
     1     2     3    1
     2     3     4   ar
     3     4     5   ar
     4     5     1    1
     5     1    21    1
     6    21    22    1
     7    22    23    1
     8    23    25    1
     9    25    26    1
    10    26    27   ar
    11    27    28   ar
    12    28    29   ar
    13    29    30   ar
    14    30    31   ar
    15     1    15    1
    16    15    16   ar
    17    16    17   ar
    18    17    18   ar
    19    18    19   ar
    20    19    20   ar
    21     5     6   ar
    22     6     7   ar
    23     7     8   ar
    24     8     9   ar
    25     9    10   ar
    26    10    11   ar
    27    11     3   ar
    28    31    26   ar
    29    20    15   ar
    30    10     6    1
    31     2    12    1
    32     2    13    1
    33    23    24    1
    34    11    14    1
@<TRIPOS>MOLECULE
*****
 31 34 0 0 0
SMALL
GASTEIGER

@<TRIPOS>ATOM
      1 C          62.0511   86.8417   10.4983 C.3     1  UNL1        0.0477
      2 N          63.4691   91.7814    9.7307 N.pl3   1  UNL1       -0.3441
      3 C          62.4875   90.7791   10.2619 C.ar    1  UNL1        0.1035
      4 C          62.7601   89.3116   10.1145 C.ar    1  UNL1        0.0296
      5 C          61.7784   88.3093   10.6457 C.ar    1  UNL1        0.0068
      6 C          60.5243   88.7749   11.3242 C.ar    1  UNL1        0.1365
      7 N          59.3809   88.0266   11.9429 N.ar    1  UNL1       -0.1258
      8 N          58.4017   89.0319   12.4727 N.ar    1  UNL1       -0.0406
      9 N          58.9399   90.4014   12.1813 N.ar    1  UNL1       -0.1095
     10 C          60.2518   90.2425   11.4716 C.ar    1  UNL1        0.1838
     11 N          61.2334   91.2447   10.9404 N.ar    1  UNL1       -0.3249
     12 H          64.2923   91.4759    9.2853 H       1  UNL1        0.1437
     13 H          63.2902   92.7446    9.8274 H       1  UNL1        0.1437
     14 H          61.0545   92.2079   11.0371 H       1  UNL1        0.1686
     15 C          61.8506   86.1712    9.1716 C.ar    1  UNL1       -0.0183
     16 C          60.5100   86.2217    8.5007 C.ar    1  UNL1       -0.0040
     17 C          60.3095   85.5512    7.1740 C.ar    1  UNL1       -0.0003
     18 C          61.4497   84.8303    6.5181 C.ar    1  UNL1       -0.0000
     19 C          62.7904   84.7797    7.1890 C.ar    1  UNL1       -0.0003
     20 C          62.9908   85.4502    8.5157 C.ar    1  UNL1       -0.0040
     21 C          62.5241   86.0446   11.6777 C.3     1  UNL1        0.0259
     22 C          63.2617   86.7227   12.7940 C.3     1  UNL1        0.0695
     23 N          63.7147   85.9299   13.9840 N.3     1  UNL1       -0.2937
     24 H          62.8832   85.7342   14.5413 H       1  UNL1        0.1236
     25 C          64.4228   84.6221   13.7887 C.3     1  UNL1        0.0956
     26 C          63.6317   83.3625   13.5947 C.ar    1  UNL1       -0.0064
     27 C          62.5552   82.9950   14.5726 C.ar    1  UNL1       -0.0029
     28 C          61.7640   81.7355   14.3788 C.ar    1  UNL1       -0.0003
     29 C          62.0493   80.8435   13.2071 C.ar    1  UNL1       -0.0000
     30 C          63.1257   81.2110   12.2292 C.ar    1  UNL1       -0.0003
     31 C          63.9169   82.4705   12.4230 C.ar    1  UNL1       -0.0029
@<TRIPOS>BOND
     1     2     3    1
     2     3     4   ar
     3     4     5   ar
     4     5     1    1
     5     1    21    1
     6    21    22    1
     7    22    23    1
     8    23    25    1
     9    25    26    1
    10    26    27   ar
    11    27    28   ar
    12    28    29   ar
    13    29    30   ar
    14    30    31   ar
    15     1    15    1
    16    15    16   ar
    17    16    17   ar
    18    17    18   ar
    19    18    19   ar
    20    19    20   ar
    21     5     6   ar
    22     6     7   ar
    23     7     8   ar
    24     8     9   ar
    25     9    10   ar
    26    10    11   ar
    27    11     3   ar
    28    31    26   ar
    29    20    15   ar
    30    10     6    1
    31     2    12    1
    32     2    13    1
    33    23    24    1
    34    11    14    1
@<TRIPOS>MOLECULE
*****
 31 34 0 0 0
SMALL
GASTEIGER

@<TRIPOS>ATOM
      1 C          63.6983   90.3300   13.0633 C.3     1  UNL1        0.0477
      2 N          65.8378   93.7007    9.7374 N.pl3   1  UNL1       -0.3441
      3 C          65.7097   93.1505   11.1270 C.ar    1  UNL1        0.1035
      4 C          64.7681   92.0154   11.4003 C.ar    1  UNL1        0.0296
      5 C          64.6400   91.4652   12.7900 C.ar    1  UNL1        0.0068
      6 C          65.4536   92.0503   13.9061 C.ar    1  UNL1        0.1365
      7 N          65.5390   91.7186   15.3665 N.ar    1  UNL1       -0.1258
      8 N          66.5334   92.6488   15.9956 N.ar    1  UNL1       -0.0406
      9 N          67.0626   93.5553   14.9241 N.ar    1  UNL1       -0.1095
     10 C          66.3952   93.1854   13.6327 C.ar    1  UNL1        0.1838
     11 N          66.5233   93.7356   12.2431 N.ar    1  UNL1       -0.3249
     12 H          65.3038   93.3168    9.0047 H       1  UNL1        0.1437
     13 H          66.4558   94.4458    9.5580 H       1  UNL1        0.1437
     14 H          67.1413   94.4806   12.0637 H       1  UNL1        0.1686
     15 C          62.7603   89.8592   11.9917 C.ar    1  UNL1       -0.0183
     16 C          62.9391   88.5002   11.3825 C.ar    1  UNL1       -0.0040
     17 C          62.0011   88.0293   10.3109 C.ar    1  UNL1       -0.0003
     18 C          60.8842   88.9175    9.8484 C.ar    1  UNL1       -0.0000
     19 C          60.7054   90.2765   10.4576 C.ar    1  UNL1       -0.0003
     20 C          61.6434   90.7473   11.5292 C.ar    1  UNL1       -0.0040
     21 C          63.6947   89.6658   14.4082 C.3     1  UNL1        0.0259
     22 C          64.4670   88.3975   14.6202 C.3     1  UNL1        0.0695
     23 N          63.7687   87.1698   15.1254 N.3     1  UNL1       -0.2937
     24 H          62.8885   87.1006   14.6149 H       1  UNL1        0.1236
     25 C          64.4364   85.8306   15.0210 C.3     1  UNL1        0.0956
     26 C          63.8727   84.7806   14.1100 C.ar    1  UNL1       -0.0064
     27 C          63.2500   85.1766   12.8041 C.ar    1  UNL1       -0.0029
     28 C          62.6864   84.1267   11.8931 C.ar    1  UNL1       -0.0003
     29 C          62.7454   82.6808   12.2880 C.ar    1  UNL1       -0.0000
     30 C          63.3681   82.2849   13.5940 C.ar    1  UNL1       -0.0003
     31 C          63.9318   83.3348   14.5050 C.ar    1  UNL1       -0.0029
@<TRIPOS>BOND
     1     2     3    1
     2     3     4   ar
     3     4     5   ar
     4     5     1    1
     5     1    21    1
     6    21    22    1
     7    22    23    1
     8    23    25    1
     9    25    26    1
    10    26    27   ar
    11    27    28   ar
    12    28    29   ar
    13    29    30   ar
    14    30    31   ar
    15     1    15    1
    16    15    16   ar
    17    16    17   ar
    18    17    18   ar
    19    18    19   ar
    20    19    20   ar
    21     5     6   ar
    22     6     7   ar
    23     7     8   ar
    24     8     9   ar
    25     9    10   ar
    26    10    11   ar
    27    11     3   ar
    28    31    26   ar
    29    20    15   ar
    30    10     6    1
    31     2    12    1
    32     2    13    1
    33    23    24    1
    34    11    14    1
@<TRIPOS>MOLECULE
*****
 31 34 0 0 0
SMALL
GASTEIGER

@<TRIPOS>ATOM
      1 C          63.2998   84.3021   12.4652 C.3     1  UNL1        0.0477
      2 N          59.8533   88.1314   11.7873 N.pl3   1  UNL1       -0.3441
      3 C          60.7813   87.1021   11.2132 C.ar    1  UNL1        0.1035
      4 C          61.5765   86.2168   12.1262 C.ar    1  UNL1        0.0296
      5 C          62.5045   85.1875   11.5521 C.ar    1  UNL1        0.0068
      6 C          62.6371   85.0436   10.0649 C.ar    1  UNL1        0.1365
      7 N          63.4652   84.1259    9.2153 N.ar    1  UNL1       -0.1258
      8 N          63.1817   84.4441    7.7771 N.ar    1  UNL1       -0.0406
      9 N          62.1784   85.5585    7.7379 N.ar    1  UNL1       -0.1095
     10 C          61.8418   85.9290    9.1519 C.ar    1  UNL1        0.1838
     11 N          60.9139   86.9582    9.7261 N.ar    1  UNL1       -0.3249
     12 H          59.7663   88.2258   12.7634 H       1  UNL1        0.1437
     13 H          59.3314   88.7125   11.1880 H       1  UNL1        0.1437
     14 H          60.3920   87.5394    9.1268 H       1  UNL1        0.1686
     15 C          62.8299   82.9071   12.7537 C.ar    1  UNL1       -0.0183
     16 C          61.9833   82.6357   13.9618 C.ar    1  UNL1       -0.0040
     17 C          61.5135   81.2407   14.2503 C.ar    1  UNL1       -0.0003
     18 C          61.8903   80.1171   13.3308 C.ar    1  UNL1       -0.0000
     19 C          62.7370   80.3885   12.1227 C.ar    1  UNL1       -0.0003
     20 C          63.2068   81.7835   11.8342 C.ar    1  UNL1       -0.0040
     21 C          64.5647   84.8117   13.0897 C.3     1  UNL1        0.0259
     22 C          64.9990   84.2980   14.4304 C.3     1  UNL1        0.0695
     23 N          64.8990   85.1797   15.6398 N.3     1  UNL1       -0.2937
     24 H          65.6852   85.8282   15.5972 H       1  UNL1        0.1236
     25 C          63.6678   86.0061   15.8658 C.3     1  UNL1        0.0956
     26 C          63.7308   87.4986   15.7293 C.ar    1  UNL1       -0.0064
     27 C          64.3830   88.1148   14.5273 C.ar    1  UNL1       -0.0029
     28 C          64.4460   89.6072   14.3907 C.ar    1  UNL1       -0.0003
     29 C          63.8569   90.4834   15.4562 C.ar    1  UNL1       -0.0000
     30 C          63.2047   89.8671   16.6582 C.ar    1  UNL1       -0.0003
     31 C          63.1417   88.3747   16.7948 C.ar    1  UNL1       -0.0029
@<TRIPOS>BOND
     1     2     3    1
     2     3     4   ar
     3     4     5   ar
     4     5     1    1
     5     1    21    1
     6    21    22    1
     7    22    23    1
     8    23    25    1
     9    25    26    1
    10    26    27   ar
    11    27    28   ar
    12    28    29   ar
    13    29    30   ar
    14    30    31   ar
    15     1    15    1
    16    15    16   ar
    17    16    17   ar
    18    17    18   ar
    19    18    19   ar
    20    19    20   ar
    21     5     6   ar
    22     6     7   ar
    23     7     8   ar
    24     8     9   ar
    25     9    10   ar
    26    10    11   ar
    27    11     3   ar
    28    31    26   ar
    29    20    15   ar
    30    10     6    1
    31     2    12    1
    32     2    13    1
    33    23    24    1
    34    11    14    1
@<TRIPOS>MOLECULE
*****
 31 34 0 0 0
SMALL
GASTEIGER

@<TRIPOS>ATOM
      1 C          63.8122   89.8288   13.7339 C.3     1  UNL1        0.0477
      2 N          66.7950   93.0966   16.4587 N.pl3   1  UNL1       -0.3441
      3 C          66.1750   92.6821   15.1572 C.ar    1  UNL1        0.1035
      4 C          65.3036   91.4627   15.0963 C.ar    1  UNL1        0.0296
      5 C          64.6836   91.0482   13.7948 C.ar    1  UNL1        0.0068
      6 C          64.9351   91.8531   12.5543 C.ar    1  UNL1        0.1365
      7 N          64.4635   91.6906   11.1396 N.ar    1  UNL1       -0.1258
      8 N          65.0434   92.8096   10.3263 N.ar    1  UNL1       -0.0406
      9 N          65.8735   93.6637   11.2383 N.ar    1  UNL1       -0.1095
     10 C          65.8065   93.0725   12.6152 C.ar    1  UNL1        0.1838
     11 N          66.4265   93.4870   13.9167 N.ar    1  UNL1       -0.3249
     12 H          66.6300   92.5684   17.2729 H       1  UNL1        0.1437
     13 H          67.3670   93.8969   16.4987 H       1  UNL1        0.1437
     14 H          66.9984   94.2873   13.9567 H       1  UNL1        0.1686
     15 C          62.8810   89.6296   12.5749 C.ar    1  UNL1       -0.0183
     16 C          61.6553   90.4840   12.4422 C.ar    1  UNL1       -0.0040
     17 C          60.7242   90.2849   11.2832 C.ar    1  UNL1       -0.0003
     18 C          61.0186   89.2312   10.2570 C.ar    1  UNL1       -0.0000
     19 C          62.2443   88.3768   10.3897 C.ar    1  UNL1       -0.0003
     20 C          63.1755   88.5759   11.5487 C.ar    1  UNL1       -0.0040
     21 C          63.8720   88.8086   14.8319 C.3     1  UNL1        0.0259
     22 C          64.4188   87.4397   14.5547 C.3     1  UNL1        0.0695
     23 N          63.6939   86.2265   15.0574 N.3     1  UNL1       -0.2937
     24 H          62.7109   86.3492   14.8145 H       1  UNL1        0.1236
     25 C          64.0916   84.8623   14.5770 C.3     1  UNL1        0.0956
     26 C          63.8627   84.4748   13.1461 C.ar    1  UNL1       -0.0064
     27 C          64.6818   83.3826   12.5247 C.ar    1  UNL1       -0.0029
     28 C          64.4530   82.9951   11.0938 C.ar    1  UNL1       -0.0003
     29 C          63.4050   83.6997   10.2844 C.ar    1  UNL1       -0.0000
     30 C          62.5859   84.7919   10.9058 C.ar    1  UNL1       -0.0003
     31 C          62.8147   85.1795   12.3367 C.ar    1  UNL1       -0.0029
@<TRIPOS>BOND
     1     2     3    1
     2     3     4   ar
     3     4     5   ar
     4     5     1    1
     5     1    21    1
     6    21    22    1
     7    22    23    1
     8    23    25    1
     9    25    26    1
    10    26    27   ar
    11    27    28   ar
    12    28    29   ar
    13    29    30   ar
    14    30    31   ar
    15     1    15    1
    16    15    16   ar
    17    16    17   ar
    18    17    18   ar
    19    18    19   ar
    20    19    20   ar
    21     5     6   ar
    22     6     7   ar
    23     7     8   ar
    24     8     9   ar
    25     9    10   ar
    26    10    11   ar
    27    11     3   ar
    28    31    26   ar
    29    20    15   ar
    30    10     6    1
    31     2    12    1
    32     2    13    1
    33    23    24    1
    34    11    14    1
@<TRIPOS>MOLECULE
*****
 31 34 0 0 0
SMALL
GASTEIGER

@<TRIPOS>ATOM
      1 C          61.7922   86.7375   10.5143 C.3     1  UNL1        0.0477
      2 N          63.4236   91.6023    9.6937 N.pl3   1  UNL1       -0.3441
      3 C          62.4046   90.6493   10.2449 C.ar    1  UNL1        0.1035
      4 C          62.6079   89.1699   10.1040 C.ar    1  UNL1        0.0296
      5 C          61.5889   88.2170   10.6553 C.ar    1  UNL1        0.0068
      6 C          60.3668   88.7436   11.3474 C.ar    1  UNL1        0.1365
      7 N          59.1991   88.0524   11.9866 N.ar    1  UNL1       -0.1258
      8 N          58.2742   89.1046   12.5226 N.ar    1  UNL1       -0.0406
      9 N          58.8703   90.4462   12.2147 N.ar    1  UNL1       -0.1095
     10 C          60.1636   90.2231   11.4884 C.ar    1  UNL1        0.1838
     11 N          61.1826   91.1759   10.9371 N.ar    1  UNL1       -0.3249
     12 H          64.2257   91.2567    9.2394 H       1  UNL1        0.1437
     13 H          63.2902   92.5733    9.7862 H       1  UNL1        0.1437
     14 H          61.0492   92.1470   11.0296 H       1  UNL1        0.1686
     15 C          61.7235   86.0968    9.1598 C.ar    1  UNL1       -0.0183
     16 C          60.4503   86.1503    8.3685 C.ar    1  UNL1       -0.0040
     17 C          60.3816   85.5096    7.0140 C.ar    1  UNL1       -0.0003
     18 C          61.5860   84.8153    6.4508 C.ar    1  UNL1       -0.0000
     19 C          62.8592   84.7617    7.2420 C.ar    1  UNL1       -0.0003
     20 C          62.9279   85.4025    8.5965 C.ar    1  UNL1       -0.0040
     21 C          62.0642   85.8988   11.7278 C.3     1  UNL1        0.0259
     22 C          63.2946   86.1456   12.5496 C.3     1  UNL1        0.0695
     23 N          63.4256   85.5250   13.9088 N.3     1  UNL1       -0.2937
     24 H          63.8144   84.5922   13.7704 H       1  UNL1        0.1236
     25 C          64.2627   86.1913   14.9602 C.3     1  UNL1        0.0956
     26 C          64.0405   87.6375   15.2906 C.ar    1  UNL1       -0.0064
     27 C          63.3014   88.0164   16.5397 C.ar    1  UNL1       -0.0029
     28 C          63.0791   89.4625   16.8702 C.ar    1  UNL1       -0.0003
     29 C          63.5959   90.5298   15.9516 C.ar    1  UNL1       -0.0000
     30 C          64.3350   90.1509   14.7025 C.ar    1  UNL1       -0.0003
     31 C          64.5572   88.7048   14.3720 C.ar    1  UNL1       -0.0029
@<TRIPOS>BOND
     1     2     3    1
     2     3     4   ar
     3     4     5   ar
     4     5     1    1
     5     1    21    1
     6    21    22    1
     7    22    23    1
     8    23    25    1
     9    25    26    1
    10    26    27   ar
    11    27    28   ar
    12    28    29   ar
    13    29    30   ar
    14    30    31   ar
    15     1    15    1
    16    15    16   ar
    17    16    17   ar
    18    17    18   ar
    19    18    19   ar
    20    19    20   ar
    21     5     6   ar
    22     6     7   ar
    23     7     8   ar
    24     8     9   ar
    25     9    10   ar
    26    10    11   ar
    27    11     3   ar
    28    31    26   ar
    29    20    15   ar
    30    10     6    1
    31     2    12    1
    32     2    13    1
    33    23    24    1
    34    11    14    1
@<TRIPOS>MOLECULE
*****
 31 34 0 0 0
SMALL
GASTEIGER

@<TRIPOS>ATOM
      1 C          63.4706   90.0548   12.5119 C.3     1  UNL1        0.0477
      2 N          65.9639   93.6402    9.6960 N.pl3   1  UNL1       -0.3441
      3 C          65.6303   93.0350   11.0274 C.ar    1  UNL1        0.1035
      4 C          64.7173   91.8475   11.1040 C.ar    1  UNL1        0.0296
      5 C          64.3838   91.2424   12.4354 C.ar    1  UNL1        0.0068
      6 C          64.9634   91.8250   13.6903 C.ar    1  UNL1        0.1365
      7 N          64.8164   91.4456   15.1340 N.ar    1  UNL1       -0.1258
      8 N          65.6387   92.3987   15.9497 N.ar    1  UNL1       -0.0406
      9 N          66.2939   93.3672   15.0101 N.ar    1  UNL1       -0.1095
     10 C          65.8765   93.0125   13.6137 C.ar    1  UNL1        0.1838
     11 N          66.2100   93.6176   12.2822 N.ar    1  UNL1       -0.3249
     12 H          65.5834   93.2578    8.8723 H       1  UNL1        0.1437
     13 H          66.5632   94.4196    9.6457 H       1  UNL1        0.1437
     14 H          66.8093   94.3970   12.2320 H       1  UNL1        0.1686
     15 C          62.2928   89.9537   11.5886 C.ar    1  UNL1       -0.0183
     16 C          62.5022   89.6350   10.1380 C.ar    1  UNL1       -0.0040
     17 C          61.3244   89.5339    9.2147 C.ar    1  UNL1       -0.0003
     18 C          59.9371   89.7516    9.7421 C.ar    1  UNL1       -0.0000
     19 C          59.7277   90.0703   11.1928 C.ar    1  UNL1       -0.0003
     20 C          60.9055   90.1714   12.1161 C.ar    1  UNL1       -0.0040
     21 C          63.7354   88.9684   13.5117 C.3     1  UNL1        0.0259
     22 C          63.8462   87.5428   13.0583 C.3     1  UNL1        0.0695
     23 N          62.6203   86.7977   12.6201 N.3     1  UNL1       -0.2937
     24 H          62.0496   87.4559   12.0897 H       1  UNL1        0.1236
     25 C          62.7537   85.5637   11.7778 C.3     1  UNL1        0.0956
     26 C          62.3026   85.5796   10.3473 C.ar    1  UNL1       -0.0064
     27 C          63.1884   85.0174    9.2753 C.ar    1  UNL1       -0.0029
     28 C          62.7373   85.0334    7.8448 C.ar    1  UNL1       -0.0003
     29 C          61.4004   85.6115    7.4864 C.ar    1  UNL1       -0.0000
     30 C          60.5146   86.1737    8.5585 C.ar    1  UNL1       -0.0003
     31 C          60.9657   86.1578    9.9889 C.ar    1  UNL1       -0.0029
@<TRIPOS>BOND
     1     2     3    1
     2     3     4   ar
     3     4     5   ar
     4     5     1    1
     5     1    21    1
     6    21    22    1
     7    22    23    1
     8    23    25    1
     9    25    26    1
    10    26    27   ar
    11    27    28   ar
    12    28    29   ar
    13    29    30   ar
    14    30    31   ar
    15     1    15    1
    16    15    16   ar
    17    16    17   ar
    18    17    18   ar
    19    18    19   ar
    20    19    20   ar
    21     5     6   ar
    22     6     7   ar
    23     7     8   ar
    24     8     9   ar
    25     9    10   ar
    26    10    11   ar
    27    11     3   ar
    28    31    26   ar
    29    20    15   ar
    30    10     6    1
    31     2    12    1
    32     2    13    1
    33    23    24    1
    34    11    14    1
