@<TRIPOS>MOLECULE
*****
 30 32 0 0 0
SMALL
GASTEIGER

@<TRIPOS>ATOM
      1 C          64.1369   90.6430   14.4136 C.ar    1  UNL1        0.1329
      2 N          64.8913   91.2399   15.5644 N.ar    1  UNL1       -0.1993
      3 C          65.7895   92.4203   15.3409 C.ar    1  UNL1        0.2148
      4 N          66.5439   93.0172   16.4919 N.pl3   1  UNL1       -0.3274
      5 N          65.9332   93.0038   13.9666 N.ar    1  UNL1       -0.2139
      6 C          65.1788   92.4068   12.8156 C.ar    1  UNL1        0.0870
      7 C          65.3226   92.9903   11.4413 C.ar    1  UNL1        0.0193
      8 C          64.5681   92.3934   10.2905 C.ar    1  UNL1        0.0017
      9 C          63.6699   91.2130   10.5140 C.ar    1  UNL1        0.0047
     10 C          63.5262   90.6295   11.8883 C.ar    1  UNL1        0.0575
     11 C          64.2806   91.2265   13.0391 C.ar    1  UNL1        0.0535
     12 H          66.4496   92.6343   17.3939 H       1  UNL1        0.1452
     13 H          67.1334   93.7920   16.3452 H       1  UNL1        0.1452
     14 C          62.6280   89.4491   12.1118 C.2     1  UNL1        0.2462
     15 O          61.2497   89.6502   12.6684 O.2     1  UNL1       -0.2701
     16 N          63.1081   88.0677   11.7787 N.am    1  UNL1       -0.2969
     17 H          64.0127   87.9357   11.4134 H       1  UNL1        0.1501
     18 C          62.2099   86.8873   12.0022 C.3     1  UNL1        0.1166
     19 C          62.7986   85.5175   12.1669 C.ar    1  UNL1       -0.0026
     20 C          62.6124   84.4870   11.0930 C.ar    1  UNL1       -0.0026
     21 C          63.2011   83.1171   11.2578 C.ar    1  UNL1       -0.0003
     22 C          63.9760   82.7779   12.4965 C.ar    1  UNL1       -0.0000
     23 C          64.1622   83.8084   13.5704 C.ar    1  UNL1       -0.0003
     24 C          63.5736   85.1782   13.4056 C.ar    1  UNL1       -0.0026
     25 N          63.2387   89.4626   14.6371 N.pl3   1  UNL1       -0.3180
     26 H          62.3901   89.3893   14.1433 H       1  UNL1        0.1482
     27 C          63.6333   88.3940   15.6129 C.3     1  UNL1        0.0882
     28 C          63.0934   88.4196   17.0121 C.3     1  UNL1        0.0212
     29 C          62.9453   85.8257   17.0035 C.3     1  UNL1        0.0001
     30 C          62.7228   87.1373   17.6966 C.3     1  UNL1        0.0017
@<TRIPOS>BOND
     1    29    30    1
     2    30    28    1
     3    28    27    1
     4    27    25    1
     5    25     1    1
     6     1     2   ar
     7     2     3   ar
     8     3     4    1
     9     3     5   ar
    10     5     6   ar
    11     6     7   ar
    12     7     8   ar
    13     8     9   ar
    14     9    10   ar
    15    10    14    1
    16    14    15    2
    17    14    16   am
    18    16    18    1
    19    18    19    1
    20    19    20   ar
    21    20    21   ar
    22    21    22   ar
    23    22    23   ar
    24    23    24   ar
    25    10    11   ar
    26    11     1   ar
    27    11     6   ar
    28    24    19   ar
    29    25    26    1
    30     4    12    1
    31     4    13    1
    32    16    17    1
@<TRIPOS>MOLECULE
*****
 30 32 0 0 0
SMALL
GASTEIGER

@<TRIPOS>ATOM
      1 C          64.1653   90.9322   14.2310 C.ar    1  UNL1        0.1329
      2 N          64.8570   91.3936   15.4794 N.ar    1  UNL1       -0.1993
      3 C          65.8504   92.5157   15.4155 C.ar    1  UNL1        0.2148
      4 N          66.5420   92.9771   16.6641 N.pl3   1  UNL1       -0.3274
      5 N          66.1521   93.1764   14.1032 N.ar    1  UNL1       -0.2139
      6 C          65.4605   92.7150   12.8546 C.ar    1  UNL1        0.0870
      7 C          65.7622   93.3757   11.5422 C.ar    1  UNL1        0.0193
      8 C          65.0706   92.9144   10.2938 C.ar    1  UNL1        0.0017
      9 C          64.0772   91.7923   10.3577 C.ar    1  UNL1        0.0047
     10 C          63.7754   91.1316   11.6700 C.ar    1  UNL1        0.0575
     11 C          64.4671   91.5930   12.9185 C.ar    1  UNL1        0.0535
     12 H          66.3440   92.5434   17.5255 H       1  UNL1        0.1452
     13 H          67.1940   93.7135   16.6222 H       1  UNL1        0.1452
     14 C          62.7820   90.0095   11.7339 C.2     1  UNL1        0.2462
     15 O          61.3786   90.2755   12.1917 O.2     1  UNL1       -0.2701
     16 N          63.1920   88.6215   11.3400 N.am    1  UNL1       -0.2969
     17 H          64.1132   88.4469   11.0396 H       1  UNL1        0.1501
     18 C          62.1986   87.4994   11.4039 C.3     1  UNL1        0.1166
     19 C          61.5198   87.0265   10.1527 C.ar    1  UNL1       -0.0026
     20 C          60.1226   87.4751    9.8420 C.ar    1  UNL1       -0.0026
     21 C          59.4437   87.0022    8.5907 C.ar    1  UNL1       -0.0003
     22 C          60.1622   86.0808    7.6501 C.ar    1  UNL1       -0.0000
     23 C          61.5595   85.6322    7.9608 C.ar    1  UNL1       -0.0003
     24 C          62.2383   86.1051    9.2120 C.ar    1  UNL1       -0.0026
     25 N          63.1719   89.8102   14.2949 N.pl3   1  UNL1       -0.3180
     26 H          62.3329   89.8657   13.7827 H       1  UNL1        0.1482
     27 C          63.4567   88.6035   15.1390 C.3     1  UNL1        0.0882
     28 C          64.3714   87.5298   14.6284 C.3     1  UNL1        0.0212
     29 C          64.8065   84.9720   14.4937 C.3     1  UNL1        0.0001
     30 C          64.3747   86.1768   15.2760 C.3     1  UNL1        0.0017
@<TRIPOS>BOND
     1    29    30    1
     2    30    28    1
     3    28    27    1
     4    27    25    1
     5    25     1    1
     6     1     2   ar
     7     2     3   ar
     8     3     4    1
     9     3     5   ar
    10     5     6   ar
    11     6     7   ar
    12     7     8   ar
    13     8     9   ar
    14     9    10   ar
    15    10    14    1
    16    14    15    2
    17    14    16   am
    18    16    18    1
    19    18    19    1
    20    19    20   ar
    21    20    21   ar
    22    21    22   ar
    23    22    23   ar
    24    23    24   ar
    25    10    11   ar
    26    11     1   ar
    27    11     6   ar
    28    24    19   ar
    29    25    26    1
    30     4    12    1
    31     4    13    1
    32    16    17    1
@<TRIPOS>MOLECULE
*****
 30 32 0 0 0
SMALL
GASTEIGER

@<TRIPOS>ATOM
      1 C          63.2183   86.8911   12.7229 C.ar    1  UNL1        0.1329
      2 N          63.6340   85.5515   13.2544 N.ar    1  UNL1       -0.1993
      3 C          63.2650   84.3021   12.5108 C.ar    1  UNL1        0.2148
      4 N          63.6807   82.9624   13.0423 N.pl3   1  UNL1       -0.3274
      5 N          62.4802   84.3924   11.2356 N.ar    1  UNL1       -0.2139
      6 C          62.0645   85.7321   10.7041 C.ar    1  UNL1        0.0870
      7 C          61.2797   85.8224    9.4290 C.ar    1  UNL1        0.0193
      8 C          60.8641   87.1621    8.8975 C.ar    1  UNL1        0.0017
      9 C          61.2331   88.4114    9.6411 C.ar    1  UNL1        0.0047
     10 C          62.0178   88.3211   10.9162 C.ar    1  UNL1        0.0575
     11 C          62.4335   86.9815   11.4477 C.ar    1  UNL1        0.0535
     12 H          64.1958   82.9032   13.8792 H       1  UNL1        0.1452
     13 H          63.4385   82.1425   12.5543 H       1  UNL1        0.1452
     14 C          62.3869   89.5704   11.6598 C.2     1  UNL1        0.2462
     15 O          61.6590   89.9362   12.9193 O.2     1  UNL1       -0.2701
     16 N          63.4838   90.4539   11.1440 N.am    1  UNL1       -0.2969
     17 H          63.9615   90.2139   10.3173 H       1  UNL1        0.1501
     18 C          63.8528   91.7033   11.8876 C.3     1  UNL1        0.1166
     19 C          65.1425   91.7685   12.6508 C.ar    1  UNL1       -0.0026
     20 C          65.1789   91.3730   14.0972 C.ar    1  UNL1       -0.0026
     21 C          66.4687   91.4382   14.8604 C.ar    1  UNL1       -0.0003
     22 C          67.7220   91.8990   14.1771 C.ar    1  UNL1       -0.0000
     23 C          67.6856   92.2945   12.7306 C.ar    1  UNL1       -0.0003
     24 C          66.3959   92.2292   11.9675 C.ar    1  UNL1       -0.0026
     25 N          63.5874   88.1404   13.4665 N.pl3   1  UNL1       -0.3180
     26 H          63.4710   89.0199   13.0396 H       1  UNL1        0.1482
     27 C          64.1336   88.0498   14.8605 C.3     1  UNL1        0.0882
     28 C          63.4738   88.8061   15.9753 C.3     1  UNL1        0.0212
     29 C          62.9105   86.5869   17.2032 C.3     1  UNL1        0.0001
     30 C          63.0265   88.0824   17.2107 C.3     1  UNL1        0.0017
@<TRIPOS>BOND
     1    29    30    1
     2    30    28    1
     3    28    27    1
     4    27    25    1
     5    25     1    1
     6     1     2   ar
     7     2     3   ar
     8     3     4    1
     9     3     5   ar
    10     5     6   ar
    11     6     7   ar
    12     7     8   ar
    13     8     9   ar
    14     9    10   ar
    15    10    14    1
    16    14    15    2
    17    14    16   am
    18    16    18    1
    19    18    19    1
    20    19    20   ar
    21    20    21   ar
    22    21    22   ar
    23    22    23   ar
    24    23    24   ar
    25    10    11   ar
    26    11     1   ar
    27    11     6   ar
    28    24    19   ar
    29    25    26    1
    30     4    12    1
    31     4    13    1
    32    16    17    1
@<TRIPOS>MOLECULE
*****
 30 32 0 0 0
SMALL
GASTEIGER

@<TRIPOS>ATOM
      1 C          63.1298   87.6271   12.4164 C.ar    1  UNL1        0.1329
      2 N          63.2644   86.2142   12.9019 N.ar    1  UNL1       -0.1993
      3 C          62.5289   85.1083   12.2048 C.ar    1  UNL1        0.2148
      4 N          62.6635   83.6954   12.6904 N.pl3   1  UNL1       -0.3274
      5 N          61.6589   85.4152   11.0221 N.ar    1  UNL1       -0.2139
      6 C          61.5243   86.8281   10.5365 C.ar    1  UNL1        0.0870
      7 C          60.6542   87.1350    9.3538 C.ar    1  UNL1        0.0193
      8 C          60.5196   88.5478    8.8683 C.ar    1  UNL1        0.0017
      9 C          61.2551   89.6537    9.5654 C.ar    1  UNL1        0.0047
     10 C          62.1252   89.3468   10.7481 C.ar    1  UNL1        0.0575
     11 C          62.2597   87.9340   11.2336 C.ar    1  UNL1        0.0535
     12 H          63.2346   83.4940   13.4667 H       1  UNL1        0.1452
     13 H          62.1808   82.9696   12.2329 H       1  UNL1        0.1452
     14 C          62.8606   90.4527   11.4452 C.2     1  UNL1        0.2462
     15 O          62.3976   90.9305   12.7896 O.2     1  UNL1       -0.2701
     16 N          64.0591   91.0810   10.7980 N.am    1  UNL1       -0.2969
     17 H          64.3630   90.7674    9.9157 H       1  UNL1        0.1501
     18 C          64.7946   92.1869   11.4952 C.3     1  UNL1        0.1166
     19 C          65.8283   92.9831   10.7552 C.ar    1  UNL1       -0.0026
     20 C          66.9983   92.2894   10.1229 C.ar    1  UNL1       -0.0026
     21 C          68.0321   93.0856    9.3829 C.ar    1  UNL1       -0.0003
     22 C          67.8958   94.5755    9.2753 C.ar    1  UNL1       -0.0000
     23 C          66.7257   95.2692    9.9077 C.ar    1  UNL1       -0.0003
     24 C          65.6920   94.4730   10.6476 C.ar    1  UNL1       -0.0026
     25 N          63.8653   88.7330   13.1135 N.pl3   1  UNL1       -0.3180
     26 H          64.0895   89.5586   12.6264 H       1  UNL1        0.1482
     27 C          64.2591   88.5810   14.5529 C.3     1  UNL1        0.0882
     28 C          63.8017   89.5882   15.5660 C.3     1  UNL1        0.0212
     29 C          62.9712   87.6829   17.1250 C.3     1  UNL1        0.0001
     30 C          63.0372   89.1404   16.7764 C.3     1  UNL1        0.0017
@<TRIPOS>BOND
     1    29    30    1
     2    30    28    1
     3    28    27    1
     4    27    25    1
     5    25     1    1
     6     1     2   ar
     7     2     3   ar
     8     3     4    1
     9     3     5   ar
    10     5     6   ar
    11     6     7   ar
    12     7     8   ar
    13     8     9   ar
    14     9    10   ar
    15    10    14    1
    16    14    15    2
    17    14    16   am
    18    16    18    1
    19    18    19    1
    20    19    20   ar
    21    20    21   ar
    22    21    22   ar
    23    22    23   ar
    24    23    24   ar
    25    10    11   ar
    26    11     1   ar
    27    11     6   ar
    28    24    19   ar
    29    25    26    1
    30     4    12    1
    31     4    13    1
    32    16    17    1
@<TRIPOS>MOLECULE
*****
 30 32 0 0 0
SMALL
GASTEIGER

@<TRIPOS>ATOM
      1 C          63.3103   87.0257   12.9858 C.ar    1  UNL1        0.1329
      2 N          63.3753   85.5522   12.7127 N.ar    1  UNL1       -0.1993
      3 C          62.8652   85.0074   11.4115 C.ar    1  UNL1        0.2148
      4 N          62.9303   83.5339   11.1384 N.pl3   1  UNL1       -0.3274
      5 N          62.2901   85.9360   10.3836 N.ar    1  UNL1       -0.2139
      6 C          62.2250   87.4096   10.6567 C.ar    1  UNL1        0.0870
      7 C          61.6498   88.3382    9.6287 C.ar    1  UNL1        0.0193
      8 C          61.5847   89.8116    9.9019 C.ar    1  UNL1        0.0017
      9 C          62.0948   90.3565   11.2030 C.ar    1  UNL1        0.0047
     10 C          62.6700   89.4279   12.2310 C.ar    1  UNL1        0.0575
     11 C          62.7351   87.9544   11.9578 C.ar    1  UNL1        0.0535
     12 H          63.3079   82.9244   11.8131 H       1  UNL1        0.1452
     13 H          62.5955   83.1763   10.2844 H       1  UNL1        0.1452
     14 C          63.1801   89.9727   13.5321 C.2     1  UNL1        0.2462
     15 O          62.3623   89.8219   14.7805 O.2     1  UNL1       -0.2701
     16 N          64.5080   90.6683   13.5849 N.am    1  UNL1       -0.2969
     17 H          65.0447   90.7672   12.7655 H       1  UNL1        0.1501
     18 C          65.0181   91.2131   14.8860 C.3     1  UNL1        0.1166
     19 C          66.3931   91.8079   14.9625 C.ar    1  UNL1       -0.0026
     20 C          67.3746   91.5731   13.8528 C.ar    1  UNL1       -0.0026
     21 C          68.7495   92.1680   13.9294 C.ar    1  UNL1       -0.0003
     22 C          69.1429   92.9975   15.1156 C.ar    1  UNL1       -0.0000
     23 C          68.1613   93.2322   16.2253 C.ar    1  UNL1       -0.0003
     24 C          66.7864   92.6374   16.1488 C.ar    1  UNL1       -0.0026
     25 N          63.8204   87.5705   14.2870 N.pl3   1  UNL1       -0.3180
     26 H          63.7119   88.5263   14.4968 H       1  UNL1        0.1482
     27 C          64.4958   86.6592   15.2684 C.3     1  UNL1        0.0882
     28 C          63.6802   85.7074   16.0922 C.3     1  UNL1        0.0212
     29 C          62.8596   87.6830   17.5665 C.3     1  UNL1        0.0001
     30 C          62.8307   86.2251   17.2149 C.3     1  UNL1        0.0017
@<TRIPOS>BOND
     1    29    30    1
     2    30    28    1
     3    28    27    1
     4    27    25    1
     5    25     1    1
     6     1     2   ar
     7     2     3   ar
     8     3     4    1
     9     3     5   ar
    10     5     6   ar
    11     6     7   ar
    12     7     8   ar
    13     8     9   ar
    14     9    10   ar
    15    10    14    1
    16    14    15    2
    17    14    16   am
    18    16    18    1
    19    18    19    1
    20    19    20   ar
    21    20    21   ar
    22    21    22   ar
    23    22    23   ar
    24    23    24   ar
    25    10    11   ar
    26    11     1   ar
    27    11     6   ar
    28    24    19   ar
    29    25    26    1
    30     4    12    1
    31     4    13    1
    32    16    17    1
@<TRIPOS>MOLECULE
*****
 30 32 0 0 0
SMALL
GASTEIGER

@<TRIPOS>ATOM
      1 C          64.7338   91.7433   12.1796 C.ar    1  UNL1        0.1329
      2 N          64.9287   92.4358   10.8634 N.ar    1  UNL1       -0.1993
      3 C          65.9436   93.5330   10.7362 C.ar    1  UNL1        0.2148
      4 N          66.1384   94.2255    9.4199 N.pl3   1  UNL1       -0.3274
      5 N          66.7635   93.9378   11.9252 N.ar    1  UNL1       -0.2139
      6 C          66.5686   93.2453   13.2415 C.ar    1  UNL1        0.0870
      7 C          67.3886   93.6501   14.4305 C.ar    1  UNL1        0.0193
      8 C          67.1937   92.9576   15.7467 C.ar    1  UNL1        0.0017
      9 C          66.1788   91.8604   15.8739 C.ar    1  UNL1        0.0047
     10 C          65.3589   91.4556   14.6849 C.ar    1  UNL1        0.0575
     11 C          65.5538   92.1481   13.3687 C.ar    1  UNL1        0.0535
     12 H          65.6003   93.9598    8.6395 H       1  UNL1        0.1452
     13 H          66.8045   94.9456    9.3364 H       1  UNL1        0.1452
     14 C          64.3440   90.3584   14.8121 C.2     1  UNL1        0.2462
     15 O          62.8929   90.6955   14.9863 O.2     1  UNL1       -0.2701
     16 N          64.7804   88.9240   14.7651 N.am    1  UNL1       -0.2969
     17 H          65.7329   88.7028   14.6508 H       1  UNL1        0.1501
     18 C          63.7655   87.8268   14.8923 C.3     1  UNL1        0.1166
     19 C          64.0360   86.4812   14.2871 C.ar    1  UNL1       -0.0026
     20 C          65.0731   85.5817   14.8915 C.ar    1  UNL1       -0.0026
     21 C          65.3436   84.2361   14.2862 C.ar    1  UNL1       -0.0003
     22 C          64.5769   83.7900   13.0766 C.ar    1  UNL1       -0.0000
     23 C          63.5397   84.6896   12.4722 C.ar    1  UNL1       -0.0003
     24 C          63.2693   86.0351   13.0774 C.ar    1  UNL1       -0.0026
     25 N          63.7190   90.6461   12.3068 N.pl3   1  UNL1       -0.3180
     26 H          63.8408   89.9386   12.9804 H       1  UNL1        0.1482
     27 C          62.5186   90.6268   11.4076 C.3     1  UNL1        0.0882
     28 C          62.4407   89.6389   10.2815 C.3     1  UNL1        0.0212
     29 C          62.1000   87.1991    9.4561 C.3     1  UNL1        0.0001
     30 C          62.0520   88.2166   10.5572 C.3     1  UNL1        0.0017
@<TRIPOS>BOND
     1    29    30    1
     2    30    28    1
     3    28    27    1
     4    27    25    1
     5    25     1    1
     6     1     2   ar
     7     2     3   ar
     8     3     4    1
     9     3     5   ar
    10     5     6   ar
    11     6     7   ar
    12     7     8   ar
    13     8     9   ar
    14     9    10   ar
    15    10    14    1
    16    14    15    2
    17    14    16   am
    18    16    18    1
    19    18    19    1
    20    19    20   ar
    21    20    21   ar
    22    21    22   ar
    23    22    23   ar
    24    23    24   ar
    25    10    11   ar
    26    11     1   ar
    27    11     6   ar
    28    24    19   ar
    29    25    26    1
    30     4    12    1
    31     4    13    1
    32    16    17    1
@<TRIPOS>MOLECULE
*****
 30 32 0 0 0
SMALL
GASTEIGER

@<TRIPOS>ATOM
      1 C          62.6232   88.3225   11.6880 C.ar    1  UNL1        0.1329
      2 N          62.0186   87.9490   10.3671 N.ar    1  UNL1       -0.1993
      3 C          61.9529   86.5089    9.9526 C.ar    1  UNL1        0.2148
      4 N          61.3483   86.1355    8.6316 N.pl3   1  UNL1       -0.3274
      5 N          62.4918   85.4423   10.8591 N.ar    1  UNL1       -0.2139
      6 C          63.0964   85.8157   12.1801 C.ar    1  UNL1        0.0870
      7 C          63.6353   84.7490   13.0866 C.ar    1  UNL1        0.0193
      8 C          64.2399   85.1224   14.4075 C.ar    1  UNL1        0.0017
      9 C          64.3057   86.5625   14.8220 C.ar    1  UNL1        0.0047
     10 C          63.7668   87.6292   13.9155 C.ar    1  UNL1        0.0575
     11 C          63.1622   87.2558   12.5946 C.ar    1  UNL1        0.0535
     12 H          60.9946   86.8356    8.0366 H       1  UNL1        0.1452
     13 H          61.3051   85.1903    8.3595 H       1  UNL1        0.1452
     14 C          63.8325   89.0693   14.3300 C.2     1  UNL1        0.2462
     15 O          62.6193   89.7415   14.9011 O.2     1  UNL1       -0.2701
     16 N          65.1114   89.8372   14.1733 N.am    1  UNL1       -0.2969
     17 H          65.9077   89.3961   13.7985 H       1  UNL1        0.1501
     18 C          65.1771   91.2773   14.5878 C.3     1  UNL1        0.1166
     19 C          66.5063   91.9252   14.8404 C.ar    1  UNL1       -0.0026
     20 C          67.6323   91.7301   13.8689 C.ar    1  UNL1       -0.0026
     21 C          68.9615   92.3780   14.1214 C.ar    1  UNL1       -0.0003
     22 C          69.1645   93.2209   15.3455 C.ar    1  UNL1       -0.0000
     23 C          68.0383   93.4159   16.3170 C.ar    1  UNL1       -0.0003
     24 C          66.7093   92.7681   16.0644 C.ar    1  UNL1       -0.0026
     25 N          62.6889   89.7626   12.1025 N.pl3   1  UNL1       -0.3180
     26 H          62.9263   89.9979   13.0285 H       1  UNL1        0.1482
     27 C          62.3930   90.8440   11.1061 C.3     1  UNL1        0.0882
     28 C          63.5151   91.5085   10.3649 C.3     1  UNL1        0.0212
     29 C          65.4559   93.1967   10.7299 C.3     1  UNL1        0.0001
     30 C          64.7572   91.9213   11.0976 C.3     1  UNL1        0.0017
@<TRIPOS>BOND
     1    29    30    1
     2    30    28    1
     3    28    27    1
     4    27    25    1
     5    25     1    1
     6     1     2   ar
     7     2     3   ar
     8     3     4    1
     9     3     5   ar
    10     5     6   ar
    11     6     7   ar
    12     7     8   ar
    13     8     9   ar
    14     9    10   ar
    15    10    14    1
    16    14    15    2
    17    14    16   am
    18    16    18    1
    19    18    19    1
    20    19    20   ar
    21    20    21   ar
    22    21    22   ar
    23    22    23   ar
    24    23    24   ar
    25    10    11   ar
    26    11     1   ar
    27    11     6   ar
    28    24    19   ar
    29    25    26    1
    30     4    12    1
    31     4    13    1
    32    16    17    1
@<TRIPOS>MOLECULE
*****
 30 32 0 0 0
SMALL
GASTEIGER

@<TRIPOS>ATOM
      1 C          62.7299   87.7030   12.0842 C.ar    1  UNL1        0.1329
      2 N          62.0295   88.1732   10.8440 N.ar    1  UNL1       -0.1993
      3 C          62.0811   89.6215   10.4569 C.ar    1  UNL1        0.2148
      4 N          61.3807   90.0917    9.2165 N.pl3   1  UNL1       -0.3274
      5 N          62.8331   90.5995   11.3101 N.ar    1  UNL1       -0.2139
      6 C          63.5335   90.1293   12.5504 C.ar    1  UNL1        0.0870
      7 C          64.2855   91.1074   13.4036 C.ar    1  UNL1        0.0193
      8 C          64.9859   90.6371   14.6438 C.ar    1  UNL1        0.0017
      9 C          64.9343   89.1888   15.0309 C.ar    1  UNL1        0.0047
     10 C          64.1823   88.2108   14.1777 C.ar    1  UNL1        0.0575
     11 C          63.4819   88.6810   12.9375 C.ar    1  UNL1        0.0535
     12 H          60.8871   89.4498    8.6566 H       1  UNL1        0.1452
     13 H          61.4145   91.0423    8.9625 H       1  UNL1        0.1452
     14 C          64.1307   86.7625   14.5648 C.2     1  UNL1        0.2462
     15 O          62.9807   86.2435   15.3759 O.2     1  UNL1       -0.2701
     16 N          65.2292   85.8333   14.1408 N.am    1  UNL1       -0.2969
     17 H          65.9840   86.1739   13.6085 H       1  UNL1        0.1501
     18 C          65.1776   84.3850   14.5279 C.3     1  UNL1        0.1166
     19 C          64.3306   83.4284   13.7421 C.ar    1  UNL1       -0.0026
     20 C          64.7920   82.9476   12.3983 C.ar    1  UNL1       -0.0026
     21 C          63.9450   81.9910   11.6125 C.ar    1  UNL1       -0.0003
     22 C          62.6365   81.5151   12.1705 C.ar    1  UNL1       -0.0000
     23 C          62.1750   81.9959   13.5144 C.ar    1  UNL1       -0.0003
     24 C          63.0221   82.9525   14.3002 C.ar    1  UNL1       -0.0026
     25 N          62.6783   86.2547   12.4713 N.pl3   1  UNL1       -0.3180
     26 H          63.0381   85.9644   13.3405 H       1  UNL1        0.1482
     27 C          62.0786   85.2488   11.5341 C.3     1  UNL1        0.0882
     28 C          62.7858   84.8967   10.2591 C.3     1  UNL1        0.0212
     29 C          62.8091   85.0063    7.6634 C.3     1  UNL1        0.0001
     30 C          62.4345   85.6074    8.9856 C.3     1  UNL1        0.0017
@<TRIPOS>BOND
     1    29    30    1
     2    30    28    1
     3    28    27    1
     4    27    25    1
     5    25     1    1
     6     1     2   ar
     7     2     3   ar
     8     3     4    1
     9     3     5   ar
    10     5     6   ar
    11     6     7   ar
    12     7     8   ar
    13     8     9   ar
    14     9    10   ar
    15    10    14    1
    16    14    15    2
    17    14    16   am
    18    16    18    1
    19    18    19    1
    20    19    20   ar
    21    20    21   ar
    22    21    22   ar
    23    22    23   ar
    24    23    24   ar
    25    10    11   ar
    26    11     1   ar
    27    11     6   ar
    28    24    19   ar
    29    25    26    1
    30     4    12    1
    31     4    13    1
    32    16    17    1
@<TRIPOS>MOLECULE
*****
 30 32 0 0 0
SMALL
GASTEIGER

@<TRIPOS>ATOM
      1 C          63.5029   87.1962   13.1910 C.ar    1  UNL1        0.1329
      2 N          64.1146   86.2645   14.1949 N.ar    1  UNL1       -0.1993
      3 C          64.0490   84.7815   13.9791 C.ar    1  UNL1        0.2148
      4 N          64.6607   83.8498   14.9830 N.pl3   1  UNL1       -0.3274
      5 N          63.3719   84.2303   12.7594 N.ar    1  UNL1       -0.2139
      6 C          62.7602   85.1621   11.7555 C.ar    1  UNL1        0.0870
      7 C          62.0830   84.6109   10.5359 C.ar    1  UNL1        0.0193
      8 C          61.4714   85.5426    9.5320 C.ar    1  UNL1        0.0017
      9 C          61.5369   87.0255    9.7478 C.ar    1  UNL1        0.0047
     10 C          62.2141   87.5767   10.9675 C.ar    1  UNL1        0.0575
     11 C          62.8257   86.6450   11.9713 C.ar    1  UNL1        0.0535
     12 H          65.1052   84.2116   15.7835 H       1  UNL1        0.1452
     13 H          64.6177   82.8765   14.8414 H       1  UNL1        0.1452
     14 C          62.2796   89.0597   11.1833 C.2     1  UNL1        0.2462
     15 O          61.4413   89.7002   12.2495 O.2     1  UNL1       -0.2701
     16 N          63.1835   89.9021   10.3328 N.am    1  UNL1       -0.2969
     17 H          63.7337   89.4817    9.6330 H       1  UNL1        0.1501
     18 C          63.2490   91.3851   10.5486 C.3     1  UNL1        0.1166
     19 C          64.4564   91.9961   11.1960 C.ar    1  UNL1       -0.0026
     20 C          65.4223   92.7982   10.3754 C.ar    1  UNL1       -0.0026
     21 C          66.6297   93.4092   11.0228 C.ar    1  UNL1       -0.0003
     22 C          66.8709   93.2182   12.4908 C.ar    1  UNL1       -0.0000
     23 C          65.9049   92.4161   13.3115 C.ar    1  UNL1       -0.0003
     24 C          64.6977   91.8051   12.6641 C.ar    1  UNL1       -0.0026
     25 N          63.5685   88.6792   13.4068 N.pl3   1  UNL1       -0.3180
     26 H          63.2682   89.2934   12.6985 H       1  UNL1        0.1482
     27 C          64.0915   89.2262   14.7018 C.3     1  UNL1        0.0882
     28 C          63.1449   89.8223   15.7011 C.3     1  UNL1        0.0212
     29 C          64.4076   91.9647   16.4532 C.3     1  UNL1        0.0001
     30 C          63.6675   90.7056   16.7951 C.3     1  UNL1        0.0017
@<TRIPOS>BOND
     1    29    30    1
     2    30    28    1
     3    28    27    1
     4    27    25    1
     5    25     1    1
     6     1     2   ar
     7     2     3   ar
     8     3     4    1
     9     3     5   ar
    10     5     6   ar
    11     6     7   ar
    12     7     8   ar
    13     8     9   ar
    14     9    10   ar
    15    10    14    1
    16    14    15    2
    17    14    16   am
    18    16    18    1
    19    18    19    1
    20    19    20   ar
    21    20    21   ar
    22    21    22   ar
    23    22    23   ar
    24    23    24   ar
    25    10    11   ar
    26    11     1   ar
    27    11     6   ar
    28    24    19   ar
    29    25    26    1
    30     4    12    1
    31     4    13    1
    32    16    17    1
