@<TRIPOS>MOLECULE
*****
 26 28 0 0 0
SMALL
GASTEIGER

@<TRIPOS>ATOM
      1 N          62.9756   83.5516   14.4262 N.3     1  UNL1       -0.2711
      2 C          62.7757   83.8022   15.8916 C.3     1  UNL1        0.0939
      3 C          62.9121   85.1915   16.4403 C.3     1  UNL1        0.1123
      4 N          63.2483   86.3303   15.5237 N.am    1  UNL1       -0.2612
      5 C          63.3847   87.7196   16.0725 C.2     1  UNL1        0.3072
      6 O          63.1848   87.9702   17.5378 O.2     1  UNL1       -0.2523
      7 N          63.7209   88.8584   15.1559 N.am    1  UNL1       -0.2639
      8 C          63.9208   88.6078   13.6905 C.3     1  UNL1        0.0966
      9 C          64.2570   89.7466   12.7740 C.3     1  UNL1        0.0412
     10 C          64.3934   91.1359   13.3227 C.3     1  UNL1        0.0750
     11 C          64.1936   91.3865   14.7880 C.3     1  UNL1        0.0412
     12 C          63.8573   90.2477   15.7047 C.3     1  UNL1        0.0966
     13 C          63.4482   86.0797   14.0584 C.3     1  UNL1        0.1123
     14 C          63.3118   84.6903   13.5097 C.3     1  UNL1        0.0939
     15 N          64.7297   92.2747   12.4060 N.am    1  UNL1       -0.3059
     16 C          66.1587   92.6908   12.2198 C.2     1  UNL1        0.2219
     17 O          67.2515   91.9681   12.9503 O.2     1  UNL1       -0.2751
     18 H          64.0124   92.7490   11.9266 H       1  UNL1        0.1494
     19 C          66.4949   93.8295   11.3032 C.3     1  UNL1        0.0765
     20 C          66.1899   95.2777   11.5476 C.3     1  UNL1        0.0091
     21 C          66.7016   96.0632   10.3767 C.3     1  UNL1        0.0005
     22 C          67.3229   95.1005    9.4086 C.3     1  UNL1        0.0005
     23 C          67.1951   93.7200    9.9813 C.3     1  UNL1        0.0091
     24 C          61.6214   81.3464   14.1956 C.3     1  UNL1        0.0173
     25 C          62.8392   82.1622   13.8775 C.3     1  UNL1        0.0577
     26 C          63.9206   81.5888   13.0106 C.3     1  UNL1        0.0173
@<TRIPOS>BOND
     1    24    25    1
     2    25    26    1
     3    25     1    1
     4     1     2    1
     5     2     3    1
     6     3     4    1
     7     4     5   am
     8     5     6    2
     9     5     7   am
    10     7     8    1
    11     8     9    1
    12     9    10    1
    13    10    15    1
    14    15    16   am
    15    16    17    2
    16    16    19    1
    17    19    20    1
    18    20    21    1
    19    21    22    1
    20    22    23    1
    21    10    11    1
    22    11    12    1
    23     4    13    1
    24    13    14    1
    25    14     1    1
    26    12     7    1
    27    23    19    1
    28    15    18    1
@<TRIPOS>MOLECULE
*****
 26 28 0 0 0
SMALL
GASTEIGER

@<TRIPOS>ATOM
      1 N          63.0095   82.4195   12.5725 N.3     1  UNL1       -0.2711
      2 C          63.7403   83.1183   13.6804 C.3     1  UNL1        0.0939
      3 C          63.8047   84.6167   13.7083 C.3     1  UNL1        0.1123
      4 N          63.1384   85.4162   12.6282 N.am    1  UNL1       -0.2612
      5 C          63.2028   86.9146   12.6560 C.2     1  UNL1        0.3072
      6 O          63.9337   87.6134   13.7639 O.2     1  UNL1       -0.2523
      7 N          62.5365   87.7141   11.5759 N.am    1  UNL1       -0.2639
      8 C          61.8056   87.0153   10.4679 C.3     1  UNL1        0.0966
      9 C          61.1392   87.8149    9.3878 C.3     1  UNL1        0.0412
     10 C          61.2037   89.3132    9.4156 C.3     1  UNL1        0.0750
     11 C          61.9345   90.0120   10.5235 C.3     1  UNL1        0.0412
     12 C          62.6009   89.2125   11.6037 C.3     1  UNL1        0.0966
     13 C          62.4076   84.7174   11.5203 C.3     1  UNL1        0.1123
     14 C          62.3431   83.2190   11.4924 C.3     1  UNL1        0.0939
     15 N          60.5373   90.1128    8.3355 N.am    1  UNL1       -0.3059
     16 C          59.6509   89.4307    7.3360 C.2     1  UNL1        0.2219
     17 O          59.4308   87.9492    7.4166 O.2     1  UNL1       -0.2751
     18 H          60.6817   91.0852    8.2825 H       1  UNL1        0.1494
     19 C          58.9845   90.2303    6.2559 C.3     1  UNL1        0.0765
     20 C          59.6764   91.0998    5.2482 C.3     1  UNL1        0.0091
     21 C          58.6287   91.7076    4.3634 C.3     1  UNL1        0.0005
     22 C          57.2894   91.2137    4.8242 C.3     1  UNL1        0.0005
     23 C          57.5093   90.3007    5.9938 C.3     1  UNL1        0.0091
     24 C          63.0527   80.1899   11.2395 C.3     1  UNL1        0.0173
     25 C          62.9450   80.9211   12.5447 C.3     1  UNL1        0.0577
     26 C          62.7729   80.1540   13.8221 C.3     1  UNL1        0.0173
@<TRIPOS>BOND
     1    24    25    1
     2    25    26    1
     3    25     1    1
     4     1     2    1
     5     2     3    1
     6     3     4    1
     7     4     5   am
     8     5     6    2
     9     5     7   am
    10     7     8    1
    11     8     9    1
    12     9    10    1
    13    10    15    1
    14    15    16   am
    15    16    17    2
    16    16    19    1
    17    19    20    1
    18    20    21    1
    19    21    22    1
    20    22    23    1
    21    10    11    1
    22    11    12    1
    23     4    13    1
    24    13    14    1
    25    14     1    1
    26    12     7    1
    27    23    19    1
    28    15    18    1
@<TRIPOS>MOLECULE
*****
 26 28 0 0 0
SMALL
GASTEIGER

@<TRIPOS>ATOM
      1 N          64.2195   95.0491   -5.2610 N.3     1  UNL1       -0.2711
      2 C          65.2689   95.9913   -4.7502 C.3     1  UNL1        0.0939
      3 C          65.5162   96.1105   -3.2756 C.3     1  UNL1        0.1123
      4 N          64.7142   95.2875   -2.3117 N.am    1  UNL1       -0.2612
      5 C          64.9615   95.4067   -0.8370 C.2     1  UNL1        0.3072
      6 O          66.0109   96.3489   -0.3263 O.2     1  UNL1       -0.2523
      7 N          64.1594   94.5836    0.1269 N.am    1  UNL1       -0.2639
      8 C          63.1099   93.6413   -0.3838 C.3     1  UNL1        0.0966
      9 C          62.3079   92.8183    0.5802 C.3     1  UNL1        0.0412
     10 C          62.5552   92.9375    2.0548 C.3     1  UNL1        0.0750
     11 C          63.6046   93.8797    2.5656 C.3     1  UNL1        0.0412
     12 C          64.4068   94.7028    1.6016 C.3     1  UNL1        0.0966
     13 C          63.6647   94.3453   -2.8224 C.3     1  UNL1        0.1123
     14 C          63.4174   94.2261   -4.2970 C.3     1  UNL1        0.0939
     15 N          61.7531   92.1143    3.0188 N.am    1  UNL1       -0.3059
     16 C          60.3927   92.5771    3.4490 C.2     1  UNL1        0.2219
     17 O          59.8343   93.8629    2.9152 O.2     1  UNL1       -0.2751
     18 H          62.1195   91.2704    3.3691 H       1  UNL1        0.1494
     19 C          59.5906   91.7540    4.4129 C.3     1  UNL1        0.0765
     20 C          60.1281   90.6909    5.3244 C.3     1  UNL1        0.0091
     21 C          58.9799   90.1293    6.1094 C.3     1  UNL1        0.0005
     22 C          57.7327   90.8454    5.6830 C.3     1  UNL1        0.0005
     23 C          58.1102   91.8495    4.6345 C.3     1  UNL1        0.0091
     24 C          62.8989   95.7524   -7.3850 C.3     1  UNL1        0.0173
     25 C          63.9721   94.9299   -6.7356 C.3     1  UNL1        0.0577
     26 C          64.7980   93.9883   -7.5609 C.3     1  UNL1        0.0173
@<TRIPOS>BOND
     1    24    25    1
     2    25    26    1
     3    25     1    1
     4     1     2    1
     5     2     3    1
     6     3     4    1
     7     4     5   am
     8     5     6    2
     9     5     7   am
    10     7     8    1
    11     8     9    1
    12     9    10    1
    13    10    15    1
    14    15    16   am
    15    16    17    2
    16    16    19    1
    17    19    20    1
    18    20    21    1
    19    21    22    1
    20    22    23    1
    21    10    11    1
    22    11    12    1
    23     4    13    1
    24    13    14    1
    25    14     1    1
    26    12     7    1
    27    23    19    1
    28    15    18    1
@<TRIPOS>MOLECULE
*****
 26 28 0 0 0
SMALL
GASTEIGER

@<TRIPOS>ATOM
      1 N          64.5309   95.2351   -5.6458 N.3     1  UNL1       -0.2711
      2 C          63.5568   96.2850   -6.0915 C.3     1  UNL1        0.0939
      3 C          62.2674   96.4753   -5.3491 C.3     1  UNL1        0.1123
      4 N          61.9521   95.6157   -4.1610 N.am    1  UNL1       -0.2612
      5 C          60.6626   95.8060   -3.4186 C.2     1  UNL1        0.3072
      6 O          59.6885   96.8559   -3.8643 O.2     1  UNL1       -0.2523
      7 N          60.3473   94.9464   -2.2305 N.am    1  UNL1       -0.2639
      8 C          61.3215   93.8964   -1.7848 C.3     1  UNL1        0.0966
      9 C          61.0062   93.0367   -0.5967 C.3     1  UNL1        0.0412
     10 C          59.7168   93.2270    0.1457 C.3     1  UNL1        0.0750
     11 C          58.7427   94.2769   -0.3000 C.3     1  UNL1        0.0412
     12 C          59.0579   95.1367   -1.4881 C.3     1  UNL1        0.0966
     13 C          62.9262   94.5658   -3.7153 C.3     1  UNL1        0.1123
     14 C          64.2156   94.3755   -4.4578 C.3     1  UNL1        0.0939
     15 N          59.4015   92.3673    1.3338 N.am    1  UNL1       -0.3059
     16 C          59.6587   92.8799    2.7198 C.2     1  UNL1        0.2219
     17 O          60.2311   94.2522    2.9178 O.2     1  UNL1       -0.2751
     18 H          59.0258   91.4666    1.2039 H       1  UNL1        0.1494
     19 C          59.3434   92.0202    3.9079 C.3     1  UNL1        0.0765
     20 C          60.3318   91.2237    4.7070 C.3     1  UNL1        0.0091
     21 C          59.5837   90.5173    5.7984 C.3     1  UNL1        0.0005
     22 C          58.1328   90.8772    5.6738 C.3     1  UNL1        0.0005
     23 C          57.9844   91.8061    4.5054 C.3     1  UNL1        0.0091
     24 C          66.1719   93.6983   -6.9479 C.3     1  UNL1        0.0173
     25 C          65.8203   95.0448   -6.3882 C.3     1  UNL1        0.0577
     26 C          66.7582   96.2011   -6.5710 C.3     1  UNL1        0.0173
@<TRIPOS>BOND
     1    24    25    1
     2    25    26    1
     3    25     1    1
     4     1     2    1
     5     2     3    1
     6     3     4    1
     7     4     5   am
     8     5     6    2
     9     5     7   am
    10     7     8    1
    11     8     9    1
    12     9    10    1
    13    10    15    1
    14    15    16   am
    15    16    17    2
    16    16    19    1
    17    19    20    1
    18    20    21    1
    19    21    22    1
    20    22    23    1
    21    10    11    1
    22    11    12    1
    23     4    13    1
    24    13    14    1
    25    14     1    1
    26    12     7    1
    27    23    19    1
    28    15    18    1
@<TRIPOS>MOLECULE
*****
 26 28 0 0 0
SMALL
GASTEIGER

@<TRIPOS>ATOM
      1 N          59.4513   89.4204    7.2158 N.3     1  UNL1       -0.2711
      2 C          59.2045   87.9600    7.4526 C.3     1  UNL1        0.0939
      3 C          59.8754   87.2621    8.5983 C.3     1  UNL1        0.1123
      4 N          60.7931   88.0246    9.5073 N.am    1  UNL1       -0.2612
      5 C          61.4640   87.3266   10.6531 C.2     1  UNL1        0.3072
      6 O          61.2172   85.8662   10.8899 O.2     1  UNL1       -0.2523
      7 N          62.3818   88.0891   11.5620 N.am    1  UNL1       -0.2639
      8 C          62.6287   89.5497   11.3253 C.3     1  UNL1        0.0966
      9 C          63.5464   90.3122   12.2342 C.3     1  UNL1        0.0412
     10 C          64.2173   89.6143   13.3800 C.3     1  UNL1        0.0750
     11 C          63.9705   88.1538   13.6168 C.3     1  UNL1        0.0412
     12 C          63.0527   87.3912   12.7078 C.3     1  UNL1        0.0966
     13 C          61.0400   89.4850    9.2705 C.3     1  UNL1        0.1123
     14 C          60.3691   90.1829    8.1247 C.3     1  UNL1        0.0939
     15 N          65.1351   90.3768   14.2890 N.am    1  UNL1       -0.3059
     16 C          66.0532   91.4201   13.7245 C.2     1  UNL1        0.2219
     17 O          66.0536   91.7008   12.2510 O.2     1  UNL1       -0.2751
     18 H          65.1349   90.1926   15.2561 H       1  UNL1        0.1494
     19 C          66.9709   92.1826   14.6334 C.3     1  UNL1        0.0765
     20 C          67.0207   93.6739   14.7871 C.3     1  UNL1        0.0091
     21 C          68.0806   94.0007   15.7970 C.3     1  UNL1        0.0005
     22 C          68.6858   92.7113   16.2675 C.3     1  UNL1        0.0005
     23 C          67.9999   91.5877   15.5484 C.3     1  UNL1        0.0091
     24 C          59.6041   90.8446    5.0482 C.3     1  UNL1        0.0173
     25 C          58.7804   90.1184    6.0700 C.3     1  UNL1        0.0577
     26 C          57.2859   90.0901    5.9460 C.3     1  UNL1        0.0173
@<TRIPOS>BOND
     1    24    25    1
     2    25    26    1
     3    25     1    1
     4     1     2    1
     5     2     3    1
     6     3     4    1
     7     4     5   am
     8     5     6    2
     9     5     7   am
    10     7     8    1
    11     8     9    1
    12     9    10    1
    13    10    15    1
    14    15    16   am
    15    16    17    2
    16    16    19    1
    17    19    20    1
    18    20    21    1
    19    21    22    1
    20    22    23    1
    21    10    11    1
    22    11    12    1
    23     4    13    1
    24    13    14    1
    25    14     1    1
    26    12     7    1
    27    23    19    1
    28    15    18    1
@<TRIPOS>MOLECULE
*****
 26 28 0 0 0
SMALL
GASTEIGER

@<TRIPOS>ATOM
      1 N          61.9119   92.5321    2.1360 N.3     1  UNL1       -0.2711
      2 C          63.0195   93.1591    1.3423 C.3     1  UNL1        0.0939
      3 C          62.6975   94.0884    0.2097 C.3     1  UNL1        0.1123
      4 N          61.2679   94.3906   -0.1292 N.am    1  UNL1       -0.2612
      5 C          60.9459   95.3199   -1.2618 C.2     1  UNL1        0.3072
      6 O          62.0535   95.9469   -2.0555 O.2     1  UNL1       -0.2523
      7 N          59.5164   95.6221   -1.6007 N.am    1  UNL1       -0.2639
      8 C          58.4087   94.9951   -0.8069 C.3     1  UNL1        0.0966
      9 C          56.9791   95.2973   -1.1458 C.3     1  UNL1        0.0412
     10 C          56.6571   96.2266   -2.2784 C.3     1  UNL1        0.0750
     11 C          57.7647   96.8536   -3.0721 C.3     1  UNL1        0.0412
     12 C          59.1944   96.5514   -2.7333 C.3     1  UNL1        0.0966
     13 C          60.1603   93.7636    0.6645 C.3     1  UNL1        0.1123
     14 C          60.4823   92.8343    1.7971 C.3     1  UNL1        0.0939
     15 N          55.2274   96.5289   -2.6173 N.am    1  UNL1       -0.3059
     16 C          54.5328   95.7542   -3.6977 C.2     1  UNL1        0.2219
     17 O          55.2679   94.6773   -4.4394 O.2     1  UNL1       -0.2751
     18 H          54.7450   97.2356   -2.1305 H       1  UNL1        0.1494
     19 C          53.1032   96.0565   -4.0366 C.3     1  UNL1        0.0765
     20 C          51.9448   96.0200   -3.0844 C.3     1  UNL1        0.0091
     21 C          50.7066   96.3893   -3.8464 C.3     1  UNL1        0.0005
     22 C          51.0999   96.6539   -5.2695 C.3     1  UNL1        0.0005
     23 C          52.5811   96.4483   -5.3870 C.3     1  UNL1        0.0091
     24 C          63.5339   90.8546    3.2784 C.3     1  UNL1        0.0173
     25 C          62.2339   91.6028    3.2686 C.3     1  UNL1        0.0577
     26 C          61.2559   91.4216    4.3913 C.3     1  UNL1        0.0173
@<TRIPOS>BOND
     1    24    25    1
     2    25    26    1
     3    25     1    1
     4     1     2    1
     5     2     3    1
     6     3     4    1
     7     4     5   am
     8     5     6    2
     9     5     7   am
    10     7     8    1
    11     8     9    1
    12     9    10    1
    13    10    15    1
    14    15    16   am
    15    16    17    2
    16    16    19    1
    17    19    20    1
    18    20    21    1
    19    21    22    1
    20    22    23    1
    21    10    11    1
    22    11    12    1
    23     4    13    1
    24    13    14    1
    25    14     1    1
    26    12     7    1
    27    23    19    1
    28    15    18    1
@<TRIPOS>MOLECULE
*****
 26 28 0 0 0
SMALL
GASTEIGER

@<TRIPOS>ATOM
      1 N          64.0509   95.8320   -1.1533 N.3     1  UNL1       -0.2711
      2 C          62.7044   96.2983   -1.6216 C.3     1  UNL1        0.0939
      3 C          61.4618   95.8093   -0.9382 C.3     1  UNL1        0.1123
      4 N          61.5659   94.8540    0.2135 N.am    1  UNL1       -0.2612
      5 C          60.3234   94.3650    0.8969 C.2     1  UNL1        0.3072
      6 O          58.9768   94.8313    0.4286 O.2     1  UNL1       -0.2523
      7 N          60.4274   93.4097    2.0487 N.am    1  UNL1       -0.2639
      8 C          61.7740   92.9434    2.5171 C.3     1  UNL1        0.0966
      9 C          61.8780   91.9881    3.6688 C.3     1  UNL1        0.0412
     10 C          60.6355   91.4991    4.3522 C.3     1  UNL1        0.0750
     11 C          59.2889   91.9654    3.8839 C.3     1  UNL1        0.0412
     12 C          59.1849   92.9207    2.7321 C.3     1  UNL1        0.0966
     13 C          62.9124   94.3878    0.6819 C.3     1  UNL1        0.1123
     14 C          64.1549   94.8768   -0.0015 C.3     1  UNL1        0.0939
     15 N          60.7395   90.5438    5.5040 N.am    1  UNL1       -0.3059
     16 C          59.4959   89.9911    6.1347 C.2     1  UNL1        0.2219
     17 O          58.1481   90.3937    5.6137 O.2     1  UNL1       -0.2751
     18 H          61.6241   90.2796    5.8460 H       1  UNL1        0.1494
     19 C          59.6000   89.0358    7.2865 C.3     1  UNL1        0.0765
     20 C          59.0922   87.6246    7.3102 C.3     1  UNL1        0.0091
     21 C          59.4086   87.0406    8.6551 C.3     1  UNL1        0.0005
     22 C          60.1119   88.0910    9.4627 C.3     1  UNL1        0.0005
     23 C          60.2302   89.3241    8.6168 C.3     1  UNL1        0.0091
     24 C          65.3941   96.2752   -3.3326 C.3     1  UNL1        0.0173
     25 C          65.2934   96.3210   -1.8367 C.3     1  UNL1        0.0577
     26 C          66.4352   96.8559   -1.0242 C.3     1  UNL1        0.0173
@<TRIPOS>BOND
     1    24    25    1
     2    25    26    1
     3    25     1    1
     4     1     2    1
     5     2     3    1
     6     3     4    1
     7     4     5   am
     8     5     6    2
     9     5     7   am
    10     7     8    1
    11     8     9    1
    12     9    10    1
    13    10    15    1
    14    15    16   am
    15    16    17    2
    16    16    19    1
    17    19    20    1
    18    20    21    1
    19    21    22    1
    20    22    23    1
    21    10    11    1
    22    11    12    1
    23     4    13    1
    24    13    14    1
    25    14     1    1
    26    12     7    1
    27    23    19    1
    28    15    18    1
@<TRIPOS>MOLECULE
*****
 26 28 0 0 0
SMALL
GASTEIGER

@<TRIPOS>ATOM
      1 N          63.2052   83.7572   13.3542 N.3     1  UNL1       -0.2711
      2 C          62.3443   83.4717   12.1595 C.3     1  UNL1        0.0939
      3 C          61.9705   84.5813   11.2220 C.3     1  UNL1        0.1123
      4 N          62.4576   85.9765   11.4792 N.am    1  UNL1       -0.2612
      5 C          62.0838   87.0862   10.5417 C.2     1  UNL1        0.3072
      6 O          61.2229   86.8007    9.3470 O.2     1  UNL1       -0.2523
      7 N          62.5710   88.4813   10.7988 N.am    1  UNL1       -0.2639
      8 C          63.4320   88.7669   11.9935 C.3     1  UNL1        0.0966
      9 C          63.9191   90.1620   12.2506 C.3     1  UNL1        0.0412
     10 C          63.5453   91.2717   11.3131 C.3     1  UNL1        0.0750
     11 C          62.6844   90.9862   10.1185 C.3     1  UNL1        0.0412
     12 C          62.1972   89.5910    9.8613 C.3     1  UNL1        0.0966
     13 C          63.3186   86.2620   12.6738 C.3     1  UNL1        0.1123
     14 C          63.6924   85.1523   13.6113 C.3     1  UNL1        0.0939
     15 N          64.0325   92.6669   11.5703 N.am    1  UNL1       -0.3059
     16 C          65.3071   93.1444   10.9399 C.2     1  UNL1        0.2219
     17 O          66.0944   92.2268   10.0522 O.2     1  UNL1       -0.2751
     18 H          63.5158   93.2692   12.1529 H       1  UNL1        0.1494
     19 C          65.7942   94.5396   11.1971 C.3     1  UNL1        0.0765
     20 C          65.9134   95.6338   10.1780 C.3     1  UNL1        0.0091
     21 C          66.4406   96.8560   10.8696 C.3     1  UNL1        0.0005
     22 C          66.6471   96.5171   12.3162 C.3     1  UNL1        0.0005
     23 C          66.2477   95.0855   12.5185 C.3     1  UNL1        0.0091
     24 C          63.3041   81.2221   13.9141 C.3     1  UNL1        0.0173
     25 C          63.5790   82.6475   14.2917 C.3     1  UNL1        0.0577
     26 C          64.2278   82.9632   15.6067 C.3     1  UNL1        0.0173
@<TRIPOS>BOND
     1    24    25    1
     2    25    26    1
     3    25     1    1
     4     1     2    1
     5     2     3    1
     6     3     4    1
     7     4     5   am
     8     5     6    2
     9     5     7   am
    10     7     8    1
    11     8     9    1
    12     9    10    1
    13    10    15    1
    14    15    16   am
    15    16    17    2
    16    16    19    1
    17    19    20    1
    18    20    21    1
    19    21    22    1
    20    22    23    1
    21    10    11    1
    22    11    12    1
    23     4    13    1
    24    13    14    1
    25    14     1    1
    26    12     7    1
    27    23    19    1
    28    15    18    1
