@<TRIPOS>MOLECULE
*****
 32 35 0 0 0
SMALL
GASTEIGER

@<TRIPOS>ATOM
      1 C          61.0465   86.9929    9.6015 C.ar    1  UNL1        0.1103
      2 C          60.2726   86.4394    8.4418 C.ar    1  UNL1        0.0185
      3 C          59.6460   87.3697    7.4459 C.ar    1  UNL1       -0.0013
      4 C          59.7932   88.8535    7.6096 C.ar    1  UNL1       -0.0024
      5 C          60.5670   89.4069    8.7693 C.ar    1  UNL1       -0.0013
      6 C          61.1937   88.4766    9.7652 C.ar    1  UNL1        0.0185
      7 S          61.6731   86.0626   10.5974 S.O2    1  UNL1        0.0289
      8 O          60.9335   86.7510   11.7059 O.2     1  UNL1       -0.1642
      9 O          62.4128   85.3741    9.4888 O.2     1  UNL1       -0.1642
     10 N          64.1797   82.3413   14.5809 N.pl3   1  UNL1       -0.3426
     11 C          63.5531   83.2716   13.5850 C.ar    1  UNL1        0.1255
     12 C          63.0526   82.7408   12.2744 C.ar    1  UNL1        0.0352
     13 C          62.4259   83.6710   11.2785 C.ar    1  UNL1        0.0232
     14 C          62.2998   85.1323   11.5933 C.ar    1  UNL1        0.1295
     15 C          62.8002   85.6631   12.9039 C.ar    1  UNL1        0.1190
     16 N          63.4269   84.7327   13.8998 N.ar    1  UNL1       -0.2283
     17 H          64.2625   81.3823   14.3744 H       1  UNL1        0.1437
     18 H          64.5082   82.6897   15.4411 H       1  UNL1        0.1437
     19 C          59.1665   89.7838    6.6137 C.3     1  UNL1        0.1177
     20 N          60.0168   90.4556    5.5766 N.am    1  UNL1       -0.2847
     21 C          59.4401   91.5494    4.7275 C.2     1  UNL1        0.3047
     22 O          58.0131   91.9714    4.9156 O.2     1  UNL1       -0.2526
     23 N          60.2905   92.2212    3.6905 N.am    1  UNL1       -0.2560
     24 C          59.8544   93.3242    2.7721 C.3     1  UNL1        0.1218
     25 C          61.0206   93.6927    1.9037 C.ar    1  UNL1       -0.0016
     26 C          61.1786   94.7121    0.8148 C.ar    1  UNL1        0.0178
     27 C          62.4934   94.8563    0.1075 C.ar    1  UNL1        0.0986
     28 N          63.6503   93.9811    0.4891 N.ar    1  UNL1       -0.2426
     29 C          63.4924   92.9617    1.5780 C.ar    1  UNL1        0.0960
     30 C          62.1775   92.8175    2.2853 C.ar    1  UNL1        0.0146
     31 C          61.7262   91.9081    3.3896 C.3     1  UNL1        0.1233
     32 H          60.9535   90.1786    5.4532 H       1  UNL1        0.1513
@<TRIPOS>BOND
     1    10    11    1
     2    11    12   ar
     3    12    13   ar
     4    13    14   ar
     5    14     7    1
     6     7     8    2
     7     7     9    2
     8     7     1    1
     9     1     2   ar
    10     2     3   ar
    11     3     4   ar
    12     4    19    1
    13    19    20    1
    14    20    21   am
    15    21    22    2
    16    21    23   am
    17    23    24    1
    18    24    25    1
    19    25    26   ar
    20    26    27   ar
    21    27    28   ar
    22    28    29   ar
    23    29    30   ar
    24    30    31    1
    25     4     5   ar
    26     5     6   ar
    27    14    15   ar
    28    15    16   ar
    29    16    11   ar
    30     6     1   ar
    31    31    23    1
    32    30    25   ar
    33    10    17    1
    34    10    18    1
    35    20    32    1
@<TRIPOS>MOLECULE
*****
 32 35 0 0 0
SMALL
GASTEIGER

@<TRIPOS>ATOM
      1 C          65.1082   91.6742   13.2211 C.ar    1  UNL1        0.1103
      2 C          64.1304   90.6233   12.7855 C.ar    1  UNL1        0.0185
      3 C          63.5596   89.6673   13.7905 C.ar    1  UNL1       -0.0013
      4 C          63.9665   89.7619   15.2311 C.ar    1  UNL1       -0.0024
      5 C          64.9443   90.8127   15.6668 C.ar    1  UNL1       -0.0013
      6 C          65.5152   91.7688   14.6618 C.ar    1  UNL1        0.0185
      7 S          65.6790   92.6302   12.2162 S.O2    1  UNL1        0.0289
      8 O          64.8621   91.9837   11.1371 O.2     1  UNL1       -0.1642
      9 O          66.4959   93.2768   13.2953 O.2     1  UNL1       -0.1642
     10 N          67.9624   96.4546    8.1962 N.pl3   1  UNL1       -0.3426
     11 C          67.3915   95.4985    9.2012 C.ar    1  UNL1        0.1255
     12 C          67.6047   94.0228    9.0377 C.ar    1  UNL1        0.0352
     13 C          67.0339   93.0667   10.0427 C.ar    1  UNL1        0.0232
     14 C          66.2499   93.5863   11.2112 C.ar    1  UNL1        0.1295
     15 C          66.0367   95.0621   11.3746 C.ar    1  UNL1        0.1190
     16 N          66.6075   96.0182   10.3696 N.ar    1  UNL1       -0.2283
     17 H          68.4769   96.1135    7.4293 H       1  UNL1        0.1437
     18 H          67.8224   97.4232    8.3035 H       1  UNL1        0.1437
     19 C          63.3957   88.8058   16.2361 C.3     1  UNL1        0.1177
     20 N          63.0349   87.4098   15.8225 N.am    1  UNL1       -0.2847
     21 C          64.0768   86.5119   15.2241 C.2     1  UNL1        0.3047
     22 O          65.4796   87.0101   15.0393 O.2     1  UNL1       -0.2526
     23 N          63.7161   85.1160   14.8104 N.am    1  UNL1       -0.2560
     24 C          64.6459   84.1087   14.2015 C.3     1  UNL1        0.1218
     25 C          63.8667   82.8524   13.9478 C.ar    1  UNL1       -0.0016
     26 C          64.2600   81.5280   13.3635 C.ar    1  UNL1        0.0178
     27 C          63.2418   80.4345   13.2313 C.ar    1  UNL1        0.0986
     28 N          61.8303   80.6653   13.6835 N.ar    1  UNL1       -0.2426
     29 C          61.4370   81.9896   14.2678 C.ar    1  UNL1        0.0960
     30 C          62.4552   83.0832   14.3999 C.ar    1  UNL1        0.0146
     31 C          62.3621   84.4821   14.9331 C.3     1  UNL1        0.1233
     32 H          62.1142   87.0829   15.9437 H       1  UNL1        0.1513
@<TRIPOS>BOND
     1    10    11    1
     2    11    12   ar
     3    12    13   ar
     4    13    14   ar
     5    14     7    1
     6     7     8    2
     7     7     9    2
     8     7     1    1
     9     1     2   ar
    10     2     3   ar
    11     3     4   ar
    12     4    19    1
    13    19    20    1
    14    20    21   am
    15    21    22    2
    16    21    23   am
    17    23    24    1
    18    24    25    1
    19    25    26   ar
    20    26    27   ar
    21    27    28   ar
    22    28    29   ar
    23    29    30   ar
    24    30    31    1
    25     4     5   ar
    26     5     6   ar
    27    14    15   ar
    28    15    16   ar
    29    16    11   ar
    30     6     1   ar
    31    31    23    1
    32    30    25   ar
    33    10    17    1
    34    10    18    1
    35    20    32    1
@<TRIPOS>MOLECULE
*****
 32 35 0 0 0
SMALL
GASTEIGER

@<TRIPOS>ATOM
      1 C          60.8563   92.5392    2.9916 C.ar    1  UNL1        0.1103
      2 C          59.4027   92.7189    3.3151 C.ar    1  UNL1        0.0185
      3 C          58.7751   91.9185    4.4175 C.ar    1  UNL1       -0.0013
      4 C          59.6011   90.9382    5.1964 C.ar    1  UNL1       -0.0024
      5 C          61.0547   90.7584    4.8730 C.ar    1  UNL1       -0.0013
      6 C          61.6824   91.5589    3.7705 C.ar    1  UNL1        0.0185
      7 S          61.4839   93.3397    1.8892 S.O2    1  UNL1        0.0289
      8 O          62.6012   92.3427    1.8013 O.2     1  UNL1       -0.1642
      9 O          60.3667   94.3366    1.9771 O.2     1  UNL1       -0.1642
     10 N          63.9943   96.5417   -2.5204 N.pl3   1  UNL1       -0.3426
     11 C          63.3668   95.7412   -1.4180 C.ar    1  UNL1        0.1255
     12 C          64.1249   94.6116   -0.7862 C.ar    1  UNL1        0.0352
     13 C          63.4973   93.8111    0.3162 C.ar    1  UNL1        0.0232
     14 C          62.1115   94.1402    0.7868 C.ar    1  UNL1        0.1295
     15 C          61.3534   95.2698    0.1550 C.ar    1  UNL1        0.1190
     16 N          61.9810   96.0703   -0.9475 N.ar    1  UNL1       -0.2283
     17 H          64.9038   96.3257   -2.8292 H       1  UNL1        0.1437
     18 H          63.4967   97.2831   -2.9351 H       1  UNL1        0.1437
     19 C          58.9734   90.1377    6.2989 C.3     1  UNL1        0.1177
     20 N          59.7936   89.7206    7.4835 N.am    1  UNL1       -0.2847
     21 C          59.8311   88.2802    7.9001 C.2     1  UNL1        0.3047
     22 O          59.0483   87.2568    7.1321 O.2     1  UNL1       -0.2526
     23 N          60.6513   87.8631    9.0847 N.am    1  UNL1       -0.2560
     24 C          60.7853   86.4671    9.6169 C.3     1  UNL1        0.1218
     25 C          61.6983   86.5100   10.8063 C.ar    1  UNL1       -0.0016
     26 C          62.1935   85.4376   11.7307 C.ar    1  UNL1        0.0178
     27 C          63.1190   85.7877   12.8580 C.ar    1  UNL1        0.0986
     28 N          63.5493   87.2103   13.0609 N.ar    1  UNL1       -0.2426
     29 C          63.0542   88.2827   12.1364 C.ar    1  UNL1        0.0960
     30 C          62.1287   87.9326   11.0091 C.ar    1  UNL1        0.0146
     31 C          61.4816   88.7688    9.9452 C.3     1  UNL1        0.1233
     32 H          60.3074   90.3923    7.9875 H       1  UNL1        0.1513
@<TRIPOS>BOND
     1    10    11    1
     2    11    12   ar
     3    12    13   ar
     4    13    14   ar
     5    14     7    1
     6     7     8    2
     7     7     9    2
     8     7     1    1
     9     1     2   ar
    10     2     3   ar
    11     3     4   ar
    12     4    19    1
    13    19    20    1
    14    20    21   am
    15    21    22    2
    16    21    23   am
    17    23    24    1
    18    24    25    1
    19    25    26   ar
    20    26    27   ar
    21    27    28   ar
    22    28    29   ar
    23    29    30   ar
    24    30    31    1
    25     4     5   ar
    26     5     6   ar
    27    14    15   ar
    28    15    16   ar
    29    16    11   ar
    30     6     1   ar
    31    31    23    1
    32    30    25   ar
    33    10    17    1
    34    10    18    1
    35    20    32    1
@<TRIPOS>MOLECULE
*****
 32 35 0 0 0
SMALL
GASTEIGER

@<TRIPOS>ATOM
      1 C          63.5085   85.0037   12.8136 C.ar    1  UNL1        0.1103
      2 C          62.9371   86.1202   11.9906 C.ar    1  UNL1        0.0185
      3 C          63.1273   87.5439   12.4229 C.ar    1  UNL1       -0.0013
      4 C          63.8888   87.8512   13.6782 C.ar    1  UNL1       -0.0024
      5 C          64.4602   86.7349   14.5011 C.ar    1  UNL1       -0.0013
      6 C          64.2701   85.3111   14.0688 C.ar    1  UNL1        0.0185
      7 S          63.3184   83.5801   12.3812 S.O2    1  UNL1        0.0289
      8 O          63.7566   83.9430   10.9934 O.2     1  UNL1       -0.1642
      9 O          62.8801   83.2172   13.7691 O.2     1  UNL1       -0.1642
     10 N          62.5578   77.8853   10.6519 N.pl3   1  UNL1       -0.3426
     11 C          62.7479   79.3090   11.0843 C.ar    1  UNL1        0.1255
     12 C          63.1527   80.3493   10.0824 C.ar    1  UNL1        0.0352
     13 C          63.3429   81.7730   10.5147 C.ar    1  UNL1        0.0232
     14 C          63.1282   82.1564   11.9489 C.ar    1  UNL1        0.1295
     15 C          62.7234   81.1160   12.9508 C.ar    1  UNL1        0.1190
     16 N          62.5333   79.6923   12.5184 N.ar    1  UNL1       -0.2283
     17 H          62.6987   77.6337    9.7106 H       1  UNL1        0.1437
     18 H          62.2921   77.2025   11.3095 H       1  UNL1        0.1437
     19 C          64.0790   89.2750   14.1105 C.3     1  UNL1        0.1177
     20 N          64.5649   90.2986   13.1276 N.am    1  UNL1       -0.2847
     21 C          64.9715   91.6617   13.6037 C.2     1  UNL1        0.3047
     22 O          64.8921   92.0011   15.0626 O.2     1  UNL1       -0.2526
     23 N          65.4575   92.6854   12.6209 N.am    1  UNL1       -0.2560
     24 C          65.8960   94.0823   12.9470 C.3     1  UNL1        0.1218
     25 C          66.2998   94.7521   11.6671 C.ar    1  UNL1       -0.0016
     26 C          66.8151   96.1301   11.3746 C.ar    1  UNL1        0.0178
     27 C          67.1416   96.5251    9.9648 C.ar    1  UNL1        0.0986
     28 N          66.9527   95.5421    8.8476 N.ar    1  UNL1       -0.2426
     29 C          66.4373   94.1642    9.1402 C.ar    1  UNL1        0.0960
     30 C          66.1109   93.7692   10.5499 C.ar    1  UNL1        0.0146
     31 C          65.5904   92.4919   11.1394 C.3     1  UNL1        0.1233
     32 H          64.6171   90.0758   12.1701 H       1  UNL1        0.1513
@<TRIPOS>BOND
     1    10    11    1
     2    11    12   ar
     3    12    13   ar
     4    13    14   ar
     5    14     7    1
     6     7     8    2
     7     7     9    2
     8     7     1    1
     9     1     2   ar
    10     2     3   ar
    11     3     4   ar
    12     4    19    1
    13    19    20    1
    14    20    21   am
    15    21    22    2
    16    21    23   am
    17    23    24    1
    18    24    25    1
    19    25    26   ar
    20    26    27   ar
    21    27    28   ar
    22    28    29   ar
    23    29    30   ar
    24    30    31    1
    25     4     5   ar
    26     5     6   ar
    27    14    15   ar
    28    15    16   ar
    29    16    11   ar
    30     6     1   ar
    31    31    23    1
    32    30    25   ar
    33    10    17    1
    34    10    18    1
    35    20    32    1
@<TRIPOS>MOLECULE
*****
 32 35 0 0 0
SMALL
GASTEIGER

@<TRIPOS>ATOM
      1 C          60.1032   91.9538    3.8954 C.ar    1  UNL1        0.1103
      2 C          61.1485   91.0913    4.5385 C.ar    1  UNL1        0.0185
      3 C          60.7704   90.1571    5.6495 C.ar    1  UNL1       -0.0013
      4 C          59.3471   90.0854    6.1175 C.ar    1  UNL1       -0.0024
      5 C          58.3018   90.9478    5.4744 C.ar    1  UNL1       -0.0013
      6 C          58.6798   91.8820    4.3634 C.ar    1  UNL1        0.0185
      7 S          60.4812   92.8880    2.7845 S.O2    1  UNL1        0.0289
      8 O          59.0300   93.1556    2.5157 O.2     1  UNL1       -0.1642
      9 O          61.9324   92.6204    3.0533 O.2     1  UNL1       -0.1642
     10 N          61.9934   96.6249   -1.6595 N.pl3   1  UNL1       -0.3426
     11 C          61.6153   95.6907   -0.5485 C.ar    1  UNL1        0.1255
     12 C          60.7907   96.1879    0.6016 C.ar    1  UNL1        0.0352
     13 C          60.4126   95.2537    1.7126 C.ar    1  UNL1        0.0232
     14 C          60.8592   93.8222    1.6735 C.ar    1  UNL1        0.1295
     15 C          61.6839   93.3250    0.5234 C.ar    1  UNL1        0.1190
     16 N          62.0619   94.2593   -0.5876 N.ar    1  UNL1       -0.2283
     17 H          61.7002   97.5644   -1.6338 H       1  UNL1        0.1437
     18 H          62.5346   96.2986   -2.4143 H       1  UNL1        0.1437
     19 C          58.9691   89.1511    7.2285 C.3     1  UNL1        0.1177
     20 N          59.9403   88.1066    7.6932 N.am    1  UNL1       -0.2847
     21 C          60.1107   87.8404    9.1595 C.2     1  UNL1        0.3047
     22 O          59.3101   88.6186   10.1610 O.2     1  UNL1       -0.2526
     23 N          61.0819   86.7959    9.6242 N.am    1  UNL1       -0.2560
     24 C          61.3584   86.4211   11.0500 C.3     1  UNL1        0.1218
     25 C          62.3944   85.3364   11.0517 C.ar    1  UNL1       -0.0016
     26 C          63.0535   84.5797   12.1665 C.ar    1  UNL1        0.0178
     27 C          64.0765   83.5274   11.8565 C.ar    1  UNL1        0.0986
     28 N          64.4403   83.2318   10.4317 N.ar    1  UNL1       -0.2426
     29 C          63.7812   83.9885    9.3168 C.ar    1  UNL1        0.0960
     30 C          62.7583   85.0408    9.6268 C.ar    1  UNL1        0.0146
     31 C          61.9471   85.9428    8.7446 C.3     1  UNL1        0.1233
     32 H          60.4658   87.5958    7.0358 H       1  UNL1        0.1513
@<TRIPOS>BOND
     1    10    11    1
     2    11    12   ar
     3    12    13   ar
     4    13    14   ar
     5    14     7    1
     6     7     8    2
     7     7     9    2
     8     7     1    1
     9     1     2   ar
    10     2     3   ar
    11     3     4   ar
    12     4    19    1
    13    19    20    1
    14    20    21   am
    15    21    22    2
    16    21    23   am
    17    23    24    1
    18    24    25    1
    19    25    26   ar
    20    26    27   ar
    21    27    28   ar
    22    28    29   ar
    23    29    30   ar
    24    30    31    1
    25     4     5   ar
    26     5     6   ar
    27    14    15   ar
    28    15    16   ar
    29    16    11   ar
    30     6     1   ar
    31    31    23    1
    32    30    25   ar
    33    10    17    1
    34    10    18    1
    35    20    32    1
@<TRIPOS>MOLECULE
*****
 32 35 0 0 0
SMALL
GASTEIGER

@<TRIPOS>ATOM
      1 C          72.4930   79.3079   11.3705 C.ar    1  UNL1        0.1103
      2 C          72.6845   79.9480   12.7135 C.ar    1  UNL1        0.0185
      3 C          72.8259   79.0937   13.9382 C.ar    1  UNL1       -0.0013
      4 C          72.7759   77.5992   13.8200 C.ar    1  UNL1       -0.0024
      5 C          72.5844   76.9590   12.4771 C.ar    1  UNL1       -0.0013
      6 C          72.4430   77.8134   11.2523 C.ar    1  UNL1        0.0185
      7 S          72.3516   80.1622   10.1457 S.O2    1  UNL1        0.0289
      8 O          71.9839   81.3347   11.0060 O.2     1  UNL1       -0.1642
      9 O          72.7193   78.9898    9.2854 O.2     1  UNL1       -0.1642
     10 N          71.7858   83.5797    5.2467 N.pl3   1  UNL1       -0.3426
     11 C          71.9273   82.7253    6.4714 C.ar    1  UNL1        0.1255
     12 C          71.9590   81.2311    6.3440 C.ar    1  UNL1        0.0352
     13 C          72.1004   80.3767    7.5687 C.ar    1  UNL1        0.0232
     14 C          72.2101   81.0166    8.9210 C.ar    1  UNL1        0.1295
     15 C          72.1784   82.5108    9.0484 C.ar    1  UNL1        0.1190
     16 N          72.0370   83.3652    7.8236 N.ar    1  UNL1       -0.2283
     17 H          71.7138   83.1597    4.3592 H       1  UNL1        0.1437
     18 H          71.7650   84.5604    5.3303 H       1  UNL1        0.1437
     19 C          72.9174   76.7448   15.0449 C.3     1  UNL1        0.1177
     20 N          72.5701   75.2867   14.9864 N.am    1  UNL1       -0.2847
     21 C          72.8701   74.3968   16.1560 C.2     1  UNL1        0.3047
     22 O          73.5174   74.9650   17.3840 O.2     1  UNL1       -0.2526
     23 N          72.5229   72.9387   16.0975 N.am    1  UNL1       -0.2560
     24 C          72.7613   71.9314   17.1831 C.3     1  UNL1        0.1218
     25 C          72.2620   70.6021   16.6997 C.ar    1  UNL1       -0.0016
     26 C          72.2347   69.2465   17.3412 C.ar    1  UNL1        0.0178
     27 C          71.6605   68.0767   16.5984 C.ar    1  UNL1        0.0986
     28 N          71.1136   68.2624   15.2141 N.ar    1  UNL1       -0.2426
     29 C          71.1408   69.6180   14.5726 C.ar    1  UNL1        0.0960
     30 C          71.7150   70.7878   15.3154 C.ar    1  UNL1        0.0146
     31 C          71.8763   72.2320   14.9432 C.3     1  UNL1        0.1233
     32 H          72.1453   74.9138   14.1804 H       1  UNL1        0.1513
@<TRIPOS>BOND
     1    10    11    1
     2    11    12   ar
     3    12    13   ar
     4    13    14   ar
     5    14     7    1
     6     7     8    2
     7     7     9    2
     8     7     1    1
     9     1     2   ar
    10     2     3   ar
    11     3     4   ar
    12     4    19    1
    13    19    20    1
    14    20    21   am
    15    21    22    2
    16    21    23   am
    17    23    24    1
    18    24    25    1
    19    25    26   ar
    20    26    27   ar
    21    27    28   ar
    22    28    29   ar
    23    29    30   ar
    24    30    31    1
    25     4     5   ar
    26     5     6   ar
    27    14    15   ar
    28    15    16   ar
    29    16    11   ar
    30     6     1   ar
    31    31    23    1
    32    30    25   ar
    33    10    17    1
    34    10    18    1
    35    20    32    1
