@<TRIPOS>MOLECULE
*****
 52 55 0 0 0
SMALL
GASTEIGER

@<TRIPOS>ATOM
      1 C          61.8665   89.0938   11.1072 C.3     1  UNL1        0.0760
      2 C          62.1460   86.5190   11.3132 C.2     1  UNL1        0.2403
      3 O          60.8648   86.4420   12.0895 O.2     1  UNL1       -0.2733
      4 N          62.6468   87.8449   10.8220 N.am    1  UNL1       -0.3043
      5 H          63.4877   87.8954   10.3125 H       1  UNL1        0.1494
      6 C          62.9264   85.2701   11.0280 C.3     1  UNL1        0.1496
      7 N          63.3517   82.2472   13.5641 N.am    1  UNL1       -0.2567
      8 C          62.7487   80.9007   13.8346 C.3     1  UNL1        0.1168
      9 C          62.8376   83.0854   12.4313 C.2     1  UNL1        0.3046
     10 O          61.7203   82.5770   11.5691 O.2     1  UNL1       -0.2526
     11 N          63.4406   84.4319   12.1608 N.am    1  UNL1       -0.2824
     12 H          64.1739   84.7656   12.7267 H       1  UNL1        0.1514
     13 C          64.4689   82.7556   14.4262 C.3     1  UNL1        0.1413
     14 C          63.8123   86.1731   16.1454 C.ar    1  UNL1        0.0875
     15 N          63.4731   84.7278   15.9309 N.ar    1  UNL1       -0.2453
     16 C          64.4425   84.1673   14.9329 C.ar    1  UNL1        0.0858
     17 C          65.3809   85.2662   14.5306 C.ar    1  UNL1        0.0530
     18 S          64.9915   86.5058   15.2799 S.2     1  UNL1       -0.0705
     19 C          62.6206   86.6464   18.4050 C.3     1  UNL1        0.0069
     20 C          63.0979   87.1196   17.0640 C.3     1  UNL1        0.0465
     21 C          62.8608   88.5392   16.6417 C.3     1  UNL1        0.0069
     22 C          63.1925   84.8594    9.6101 C.3     1  UNL1        0.0270
     23 C          62.5751   85.6264    8.4786 C.3     1  UNL1        0.0022
     24 C          64.0761   83.6816    9.3238 C.3     1  UNL1        0.0022
     25 C          62.5301   90.2538   11.7882 C.3     1  UNL1        0.0216
     26 C          63.6161   91.0141   11.0865 C.3     1  UNL1        0.0217
     27 C          64.6916   91.6922   11.8825 C.3     1  UNL1        0.0792
     28 N          64.4140   92.1447   13.2854 N.am    1  UNL1       -0.2720
     29 C          64.5525   91.1801   14.4259 C.2     1  UNL1        0.4019
     30 O          64.9685   89.7632   14.1634 O.2     1  UNL1       -0.2264
     31 H          64.1410   93.0748   13.4577 H       1  UNL1        0.1527
     32 O          64.2749   91.6327   15.8288 O.3     1  UNL1       -0.4291
     33 C          65.2935   92.4472   16.5695 C.3     1  UNL1        0.2447
     34 C          66.6409   92.6979   15.9597 C.ar    1  UNL1        0.0714
     35 C          66.9282   93.6010   14.7970 C.ar    1  UNL1        0.1053
     36 N          68.4024   93.5508   14.5243 N.ar    1  UNL1       -0.2350
     37 C          69.0261   92.6167   15.5184 C.ar    1  UNL1        0.1343
     38 S          67.9375   92.0896   16.4056 S.2     1  UNL1       -0.0652
     39 C          66.0447   91.9178   11.2756 C.3     1  UNL1        0.0460
     40 C          66.4154   93.2739   10.7525 C.ar    1  UNL1       -0.0205
     41 C          65.8619   94.5062   11.4042 C.ar    1  UNL1       -0.0042
     42 C          66.2327   95.8622   10.8810 C.ar    1  UNL1       -0.0003
     43 C          67.1569   95.9859    9.7061 C.ar    1  UNL1       -0.0000
     44 C          67.7105   94.7535    9.0544 C.ar    1  UNL1       -0.0003
     45 C          67.3397   93.3975    9.5775 C.ar    1  UNL1       -0.0042
     46 C          60.4223   89.1826   10.7113 C.3     1  UNL1        0.0459
     47 C          59.9859   88.7112    9.3558 C.ar    1  UNL1       -0.0205
     48 C          59.5808   87.2812    9.1535 C.ar    1  UNL1       -0.0042
     49 C          59.1444   86.8099    7.7980 C.ar    1  UNL1       -0.0003
     50 C          59.1131   87.7686    6.6448 C.ar    1  UNL1       -0.0000
     51 C          59.5181   89.1987    6.8471 C.ar    1  UNL1       -0.0003
     52 C          59.9545   89.6700    8.2026 C.ar    1  UNL1       -0.0042
@<TRIPOS>BOND
     1    19    20    1
     2    20    21    1
     3    20    14    1
     4    14    15   ar
     5    15    16   ar
     6    16    13    1
     7    13     7    1
     8     7     8    1
     9     7     9   am
    10     9    10    2
    11     9    11   am
    12     6    11    1
    13     6     2    1
    14     2     3    2
    15     2     4   am
    16     4     1    1
    17     1    25    1
    18    25    26    1
    19    27    26    1
    20    27    39    1
    21    39    40    1
    22    40    41   ar
    23    41    42   ar
    24    42    43   ar
    25    43    44   ar
    26    44    45   ar
    27    27    28    1
    28    28    29   am
    29    29    30    2
    30    29    32    1
    31    32    33    1
    32    33    34    1
    33    34    35   ar
    34    35    36   ar
    35    36    37   ar
    36    37    38   ar
    37     1    46    1
    38    46    47    1
    39    47    48   ar
    40    48    49   ar
    41    49    50   ar
    42    50    51   ar
    43    51    52   ar
    44     6    22    1
    45    22    23    1
    46    22    24    1
    47    16    17   ar
    48    17    18   ar
    49    18    14   ar
    50    45    40   ar
    51    38    34   ar
    52    52    47   ar
    53    11    12    1
    54     4     5    1
    55    28    31    1
@<TRIPOS>MOLECULE
*****
 52 55 0 0 0
SMALL
GASTEIGER

@<TRIPOS>ATOM
      1 C          62.0067   89.6489   10.9674 C.3     1  UNL1        0.0760
      2 C          62.0783   87.0822   11.3638 C.2     1  UNL1        0.2403
      3 O          60.7748   87.1598   12.1019 O.2     1  UNL1       -0.2733
      4 N          62.6943   88.3268   10.7965 N.am    1  UNL1       -0.3043
      5 H          63.5498   88.2759   10.3120 H       1  UNL1        0.1494
      6 C          62.7659   85.7601   11.1929 C.3     1  UNL1        0.1496
      7 N          63.2946   82.8425   13.8307 N.am    1  UNL1       -0.2567
      8 C          62.8472   81.4299   14.0639 C.3     1  UNL1        0.1168
      9 C          62.8066   83.5950   12.6284 C.2     1  UNL1        0.3046
     10 O          61.8711   82.9349   11.6593 O.2     1  UNL1       -0.2526
     11 N          63.2540   85.0076   12.3952 N.am    1  UNL1       -0.2824
     12 H          63.8679   85.4409   13.0313 H       1  UNL1        0.1514
     13 C          64.2300   83.5026   14.7998 C.3     1  UNL1        0.1413
     14 C          63.6028   87.1887   15.8414 C.ar    1  UNL1        0.0875
     15 N          64.1617   86.1733   14.8893 N.ar    1  UNL1       -0.2453
     16 C          63.8544   84.8096   15.4330 C.ar    1  UNL1        0.0858
     17 C          63.1055   84.9821   16.7212 C.ar    1  UNL1        0.0530
     18 S          62.9500   86.4525   16.9736 S.2     1  UNL1       -0.0705
     19 C          64.2582   89.2744   14.4377 C.3     1  UNL1        0.0069
     20 C          63.6826   88.6788   15.6882 C.3     1  UNL1        0.0465
     21 C          63.1869   89.5732   16.7856 C.3     1  UNL1        0.0069
     22 C          62.9654   85.1905    9.8197 C.3     1  UNL1        0.0270
     23 C          62.2511   85.7934    8.6465 C.3     1  UNL1        0.0022
     24 C          63.8792   84.0179    9.6197 C.3     1  UNL1        0.0022
     25 C          62.7512   90.8111   11.5547 C.3     1  UNL1        0.0216
     26 C          63.9925   91.3221   10.8854 C.3     1  UNL1        0.0217
     27 C          65.0106   92.0879   11.6773 C.3     1  UNL1        0.0792
     28 N          64.8891   93.5767   11.8145 N.am    1  UNL1       -0.2720
     29 C          66.0199   94.4642   11.3859 C.2     1  UNL1        0.4019
     30 O          67.2722   93.8629   10.8200 O.2     1  UNL1       -0.2264
     31 H          64.0671   93.9713   12.1859 H       1  UNL1        0.1527
     32 O          65.8983   95.9529   11.5231 O.3     1  UNL1       -0.4291
     33 C          65.1286   96.7397   10.5041 C.3     1  UNL1        0.2447
     34 C          65.5823   96.7619    9.0745 C.ar    1  UNL1        0.0714
     35 C          64.6940   96.8453    7.8687 C.ar    1  UNL1        0.1053
     36 N          65.5667   96.8396    6.6487 N.ar    1  UNL1       -0.2350
     37 C          66.9944   96.7526    7.1005 C.ar    1  UNL1        0.1343
     38 S          67.0040   96.7046    8.5997 S.2     1  UNL1       -0.0652
     39 C          66.1502   91.3650   12.3319 C.3     1  UNL1        0.0460
     40 C          66.7165   91.8723   13.6250 C.ar    1  UNL1       -0.0205
     41 C          65.8034   92.1768   14.7754 C.ar    1  UNL1       -0.0042
     42 C          66.3696   92.6840   16.0684 C.ar    1  UNL1       -0.0003
     43 C          67.8490   92.8868   16.2111 C.ar    1  UNL1       -0.0000
     44 C          68.7621   92.5823   15.0607 C.ar    1  UNL1       -0.0003
     45 C          68.1959   92.0750   13.7677 C.ar    1  UNL1       -0.0042
     46 C          60.5745   89.8089   10.5510 C.3     1  UNL1        0.0459
     47 C          60.0730   89.1272    9.3125 C.ar    1  UNL1       -0.0205
     48 C          59.5212   87.7348    9.3939 C.ar    1  UNL1       -0.0042
     49 C          59.0197   87.0532    8.1554 C.ar    1  UNL1       -0.0003
     50 C          59.0700   87.7640    6.8355 C.ar    1  UNL1       -0.0000
     51 C          59.6218   89.1565    6.7540 C.ar    1  UNL1       -0.0003
     52 C          60.1233   89.8381    7.9925 C.ar    1  UNL1       -0.0042
@<TRIPOS>BOND
     1    19    20    1
     2    20    21    1
     3    20    14    1
     4    14    15   ar
     5    15    16   ar
     6    16    13    1
     7    13     7    1
     8     7     8    1
     9     7     9   am
    10     9    10    2
    11     9    11   am
    12     6    11    1
    13     6     2    1
    14     2     3    2
    15     2     4   am
    16     4     1    1
    17     1    25    1
    18    25    26    1
    19    27    26    1
    20    27    39    1
    21    39    40    1
    22    40    41   ar
    23    41    42   ar
    24    42    43   ar
    25    43    44   ar
    26    44    45   ar
    27    27    28    1
    28    28    29   am
    29    29    30    2
    30    29    32    1
    31    32    33    1
    32    33    34    1
    33    34    35   ar
    34    35    36   ar
    35    36    37   ar
    36    37    38   ar
    37     1    46    1
    38    46    47    1
    39    47    48   ar
    40    48    49   ar
    41    49    50   ar
    42    50    51   ar
    43    51    52   ar
    44     6    22    1
    45    22    23    1
    46    22    24    1
    47    16    17   ar
    48    17    18   ar
    49    18    14   ar
    50    45    40   ar
    51    38    34   ar
    52    52    47   ar
    53    11    12    1
    54     4     5    1
    55    28    31    1
@<TRIPOS>MOLECULE
*****
 52 55 0 0 0
SMALL
GASTEIGER

@<TRIPOS>ATOM
      1 C          63.1494   85.9642   12.9194 C.3     1  UNL1        0.0760
      2 C          63.6664   88.0289   14.4094 C.2     1  UNL1        0.2403
      3 O          63.5219   87.1793   15.6370 O.2     1  UNL1       -0.2733
      4 N          63.4802   87.4214   13.0505 N.am    1  UNL1       -0.3043
      5 H          63.5751   87.9791   12.2448 H       1  UNL1        0.1494
      6 C          63.9972   89.4861   14.5405 C.3     1  UNL1        0.1496
      7 N          64.0453   91.3376   11.0305 N.am    1  UNL1       -0.2567
      8 C          63.1084   91.6542    9.9027 C.3     1  UNL1        0.1168
      9 C          63.5528   90.5702   12.2215 C.2     1  UNL1        0.3046
     10 O          62.1235   90.1195   12.2848 O.2     1  UNL1       -0.2526
     11 N          64.4897   90.2535   13.3494 N.am    1  UNL1       -0.2824
     12 H          65.4278   90.5493   13.3079 H       1  UNL1        0.1514
     13 C          65.4745   91.7882   10.9673 C.3     1  UNL1        0.1413
     14 C          67.2430   93.1584   14.1392 C.ar    1  UNL1        0.0875
     15 N          66.8526   92.0182   13.2462 N.ar    1  UNL1       -0.2453
     16 C          66.0631   92.5767   12.0996 C.ar    1  UNL1        0.0858
     17 C          65.9655   94.0621   12.2840 C.ar    1  UNL1        0.0530
     18 S          66.6947   94.4217   13.5445 S.2     1  UNL1       -0.0705
     19 C          68.1723   91.7321   16.1019 C.3     1  UNL1        0.0069
     20 C          68.0414   93.0538   15.4047 C.3     1  UNL1        0.0465
     21 C          68.7090   94.2708   15.9731 C.3     1  UNL1        0.0069
     22 C          63.8356   90.1759   15.8626 C.3     1  UNL1        0.0270
     23 C          64.4271   91.5378   16.0753 C.3     1  UNL1        0.0022
     24 C          63.0824   89.5037   16.9720 C.3     1  UNL1        0.0022
     25 C          61.9817   85.5326   12.0828 C.3     1  UNL1        0.0216
     26 C          61.2825   86.5252   11.2019 C.3     1  UNL1        0.0217
     27 C          61.7865   86.7804    9.8123 C.3     1  UNL1        0.0792
     28 N          61.3990   88.0385    9.0933 N.am    1  UNL1       -0.2720
     29 C          60.0067   88.1982    8.5584 C.2     1  UNL1        0.4019
     30 O          59.0019   87.0998    8.7426 O.2     1  UNL1       -0.2264
     31 H          62.0585   88.7594    8.9724 H       1  UNL1        0.1527
     32 O          59.6192   89.4563    7.8394 O.3     1  UNL1       -0.4291
     33 C          59.0026   89.3804    6.4742 C.3     1  UNL1        0.2447
     34 C          59.0582   90.5675    5.5590 C.ar    1  UNL1        0.0714
     35 C          57.8841   91.3733    5.0877 C.ar    1  UNL1        0.1053
     36 N          58.3979   92.4611    4.1919 N.ar    1  UNL1       -0.2350
     37 C          59.8897   92.3276    4.1094 C.ar    1  UNL1        0.1343
     38 S          60.2978   91.1573    4.9543 S.2     1  UNL1       -0.0652
     39 C          62.6779   85.7775    9.1418 C.3     1  UNL1        0.0460
     40 C          62.2994   85.2136    7.8043 C.ar    1  UNL1       -0.0205
     41 C          63.3665   84.8439    6.8171 C.ar    1  UNL1       -0.0042
     42 C          62.9881   84.2800    5.4797 C.ar    1  UNL1       -0.0003
     43 C          61.5425   84.0859    5.1294 C.ar    1  UNL1       -0.0000
     44 C          60.4754   84.4557    6.1165 C.ar    1  UNL1       -0.0003
     45 C          60.8539   85.0195    7.4540 C.ar    1  UNL1       -0.0042
     46 C          63.9864   84.9387   13.6250 C.3     1  UNL1        0.0459
     47 C          63.5982   83.4907   13.5752 C.ar    1  UNL1       -0.0205
     48 C          62.5066   82.9757   14.4657 C.ar    1  UNL1       -0.0042
     49 C          62.1184   81.5277   14.4158 C.ar    1  UNL1       -0.0003
     50 C          62.8220   80.5945   13.4755 C.ar    1  UNL1       -0.0000
     51 C          63.9137   81.1095   12.5850 C.ar    1  UNL1       -0.0003
     52 C          64.3019   82.5575   12.6348 C.ar    1  UNL1       -0.0042
@<TRIPOS>BOND
     1    19    20    1
     2    20    21    1
     3    20    14    1
     4    14    15   ar
     5    15    16   ar
     6    16    13    1
     7    13     7    1
     8     7     8    1
     9     7     9   am
    10     9    10    2
    11     9    11   am
    12     6    11    1
    13     6     2    1
    14     2     3    2
    15     2     4   am
    16     4     1    1
    17     1    25    1
    18    25    26    1
    19    27    26    1
    20    27    39    1
    21    39    40    1
    22    40    41   ar
    23    41    42   ar
    24    42    43   ar
    25    43    44   ar
    26    44    45   ar
    27    27    28    1
    28    28    29   am
    29    29    30    2
    30    29    32    1
    31    32    33    1
    32    33    34    1
    33    34    35   ar
    34    35    36   ar
    35    36    37   ar
    36    37    38   ar
    37     1    46    1
    38    46    47    1
    39    47    48   ar
    40    48    49   ar
    41    49    50   ar
    42    50    51   ar
    43    51    52   ar
    44     6    22    1
    45    22    23    1
    46    22    24    1
    47    16    17   ar
    48    17    18   ar
    49    18    14   ar
    50    45    40   ar
    51    38    34   ar
    52    52    47   ar
    53    11    12    1
    54     4     5    1
    55    28    31    1
@<TRIPOS>MOLECULE
*****
 52 55 0 0 0
SMALL
GASTEIGER

@<TRIPOS>ATOM
      1 C          63.7815   91.2364   11.5689 C.3     1  UNL1        0.0760
      2 C          61.7837   89.5755   11.5616 C.2     1  UNL1        0.2403
      3 O          62.6152   88.5721   12.3043 O.2     1  UNL1       -0.2733
      4 N          62.3668   90.9077   11.1938 N.am    1  UNL1       -0.3043
      5 H          61.8211   91.5663   10.7063 H       1  UNL1        0.1494
      6 C          60.3690   89.2468   11.1866 C.3     1  UNL1        0.1496
      7 N          59.5390   88.1997    7.4496 N.am    1  UNL1       -0.2567
      8 C          59.2662   88.8476    6.1245 C.3     1  UNL1        0.1168
      9 C          59.8176   89.0471    8.6555 C.2     1  UNL1        0.3046
     10 O          59.8234   90.5424    8.5364 O.2     1  UNL1       -0.2526
     11 N          60.0904   88.3993    9.9806 N.am    1  UNL1       -0.2824
     12 H          60.0866   87.4179   10.0588 H       1  UNL1        0.1514
     13 C          59.5332   86.7045    7.5688 C.3     1  UNL1        0.1413
     14 C          62.4428   84.9692    9.4631 C.ar    1  UNL1        0.0875
     15 N          61.1393   85.7114    9.4607 N.ar    1  UNL1       -0.2453
     16 C          60.7640   85.9844    8.0343 C.ar    1  UNL1        0.0858
     17 C          61.8356   85.4110    7.1552 C.ar    1  UNL1        0.0530
     18 S          62.8732   84.7836    8.0382 S.2     1  UNL1       -0.0705
     19 C          64.1766   83.3759   10.5609 C.3     1  UNL1        0.0069
     20 C          63.1856   84.4958   10.6773 C.3     1  UNL1        0.0465
     21 C          62.9373   85.1423   12.0078 C.3     1  UNL1        0.0069
     22 C          59.2330   89.7655   12.0174 C.3     1  UNL1        0.0270
     23 C          58.6988   91.1466   11.7787 C.3     1  UNL1        0.0022
     24 C          58.6312   88.9030   13.0869 C.3     1  UNL1        0.0022
     25 C          64.2831   90.9265   12.9481 C.3     1  UNL1        0.0216
     26 C          63.5356   91.4274   14.1482 C.3     1  UNL1        0.0217
     27 C          63.9103   90.9480   15.5192 C.3     1  UNL1        0.0792
     28 N          63.2817   89.7056   16.0771 N.am    1  UNL1       -0.2720
     29 C          63.7654   88.3565   15.6343 C.2     1  UNL1        0.4019
     30 O          64.8777   88.2498   14.6336 O.2     1  UNL1       -0.2264
     31 H          62.5516   89.7756   16.7339 H       1  UNL1        0.1527
     32 O          63.1368   87.1141   16.1922 O.3     1  UNL1       -0.4291
     33 C          63.9498   85.8618   16.3362 C.3     1  UNL1        0.2447
     34 C          63.5150   84.6020   15.6478 C.ar    1  UNL1        0.0714
     35 C          64.4205   83.5667   15.0493 C.ar    1  UNL1        0.1053
     36 N          63.5635   82.4811   14.4688 N.ar    1  UNL1       -0.2350
     37 C          62.1283   82.8455   14.7085 C.ar    1  UNL1        0.1343
     38 S          62.0984   84.1562   15.4372 S.2     1  UNL1       -0.0652
     39 C          64.9137   91.7109   16.3323 C.3     1  UNL1        0.0460
     40 C          66.2582   92.0359   15.7519 C.ar    1  UNL1       -0.0205
     41 C          67.0553   93.1815   16.3015 C.ar    1  UNL1       -0.0042
     42 C          68.3997   93.5064   15.7211 C.ar    1  UNL1       -0.0003
     43 C          68.9471   92.6857   14.5912 C.ar    1  UNL1       -0.0000
     44 C          68.1500   91.5400   14.0416 C.ar    1  UNL1       -0.0003
     45 C          66.8055   91.2151   14.6220 C.ar    1  UNL1       -0.0042
     46 C          64.6946   91.8751   10.5646 C.3     1  UNL1        0.0459
     47 C          65.3092   93.2125   10.8537 C.ar    1  UNL1       -0.0205
     48 C          65.8330   93.5163   12.2260 C.ar    1  UNL1       -0.0042
     49 C          66.4476   94.8538   12.5151 C.ar    1  UNL1       -0.0003
     50 C          66.5383   95.8874   11.4319 C.ar    1  UNL1       -0.0000
     51 C          66.0145   95.5836   10.0595 C.ar    1  UNL1       -0.0003
     52 C          65.3999   94.2462    9.7704 C.ar    1  UNL1       -0.0042
@<TRIPOS>BOND
     1    19    20    1
     2    20    21    1
     3    20    14    1
     4    14    15   ar
     5    15    16   ar
     6    16    13    1
     7    13     7    1
     8     7     8    1
     9     7     9   am
    10     9    10    2
    11     9    11   am
    12     6    11    1
    13     6     2    1
    14     2     3    2
    15     2     4   am
    16     4     1    1
    17     1    25    1
    18    25    26    1
    19    27    26    1
    20    27    39    1
    21    39    40    1
    22    40    41   ar
    23    41    42   ar
    24    42    43   ar
    25    43    44   ar
    26    44    45   ar
    27    27    28    1
    28    28    29   am
    29    29    30    2
    30    29    32    1
    31    32    33    1
    32    33    34    1
    33    34    35   ar
    34    35    36   ar
    35    36    37   ar
    36    37    38   ar
    37     1    46    1
    38    46    47    1
    39    47    48   ar
    40    48    49   ar
    41    49    50   ar
    42    50    51   ar
    43    51    52   ar
    44     6    22    1
    45    22    23    1
    46    22    24    1
    47    16    17   ar
    48    17    18   ar
    49    18    14   ar
    50    45    40   ar
    51    38    34   ar
    52    52    47   ar
    53    11    12    1
    54     4     5    1
    55    28    31    1
@<TRIPOS>MOLECULE
*****
 52 55 0 0 0
SMALL
GASTEIGER

@<TRIPOS>ATOM
      1 C          61.7707   89.8716   10.6714 C.3     1  UNL1        0.0760
      2 C          61.5583   87.3526   11.2710 C.2     1  UNL1        0.2403
      3 O          60.2513   87.6255   11.9546 O.2     1  UNL1       -0.2733
      4 N          62.3180   88.4757   10.6293 N.am    1  UNL1       -0.3043
      5 H          63.1757   88.2965   10.1806 H       1  UNL1        0.1494
      6 C          62.1055   85.9566   11.2289 C.3     1  UNL1        0.1496
      7 N          63.0170   84.5904   14.8417 N.am    1  UNL1       -0.2567
      8 C          63.9419   84.9157   15.9770 C.3     1  UNL1        0.1168
      9 C          63.0237   85.4361   13.6030 C.2     1  UNL1        0.3046
     10 O          63.9552   86.6073   13.4994 O.2     1  UNL1       -0.2526
     11 N          62.0988   85.1108   12.4677 N.am    1  UNL1       -0.2824
     12 H          61.4874   84.3422   12.5357 H       1  UNL1        0.1514
     13 C          62.0855   83.4193   14.9452 C.3     1  UNL1        0.1413
     14 C          62.7430   80.8749   12.0888 C.ar    1  UNL1        0.0875
     15 N          62.7000   82.2825   12.6053 N.ar    1  UNL1       -0.2453
     16 C          62.2639   82.2367   14.0397 C.ar    1  UNL1        0.0858
     17 C          62.0374   80.8008   14.4098 C.ar    1  UNL1        0.0530
     18 S          62.3335   79.9591   13.2041 S.2     1  UNL1       -0.0705
     19 C          63.9142   81.3885    9.8273 C.3     1  UNL1        0.0069
     20 C          63.1280   80.4564   10.7007 C.3     1  UNL1        0.0465
     21 C          62.7268   79.1058   10.1861 C.3     1  UNL1        0.0069
     22 C          62.6595   85.4065    9.9481 C.3     1  UNL1        0.0270
     23 C          62.2079   85.9689    8.6329 C.3     1  UNL1        0.0022
     24 C          63.6650   84.2940    9.9826 C.3     1  UNL1        0.0022
     25 C          62.5537   90.9645   11.3366 C.3     1  UNL1        0.0216
     26 C          63.8703   91.3989   10.7641 C.3     1  UNL1        0.0217
     27 C          64.9055   92.0223   11.6529 C.3     1  UNL1        0.0792
     28 N          64.5685   92.3585   13.0754 N.am    1  UNL1       -0.2720
     29 C          64.5307   91.2761   14.1132 C.2     1  UNL1        0.4019
     30 O          64.8299   89.8575   13.7285 O.2     1  UNL1       -0.2264
     31 H          64.3722   93.2896   13.3278 H       1  UNL1        0.1527
     32 O          64.1938   91.6124   15.5356 O.3     1  UNL1       -0.4291
     33 C          65.1653   92.3904   16.3728 C.3     1  UNL1        0.2447
     34 C          66.5394   92.6847   15.8483 C.ar    1  UNL1        0.0714
     35 C          66.8711   93.6083   14.7139 C.ar    1  UNL1        0.1053
     36 N          68.3598   93.6015   14.5307 N.ar    1  UNL1       -0.2350
     37 C          68.9483   92.6738   15.5519 C.ar    1  UNL1        0.1343
     38 S          67.8233   92.1072   16.3662 S.2     1  UNL1       -0.0652
     39 C          66.2776   92.3093   11.1192 C.3     1  UNL1        0.0460
     40 C          66.5952   93.6626   10.5554 C.ar    1  UNL1       -0.0205
     41 C          66.1390   94.8992   11.2714 C.ar    1  UNL1       -0.0042
     42 C          66.4565   96.2525   10.7076 C.ar    1  UNL1       -0.0003
     43 C          67.2302   96.3691    9.4278 C.ar    1  UNL1       -0.0000
     44 C          67.6864   95.1324    8.7119 C.ar    1  UNL1       -0.0003
     45 C          67.3689   93.7792    9.2757 C.ar    1  UNL1       -0.0042
     46 C          60.4403   90.1747   10.0481 C.3     1  UNL1        0.0459
     47 C          59.9413   89.3431    8.9038 C.ar    1  UNL1       -0.0205
     48 C          59.9266   89.9100    7.5152 C.ar    1  UNL1       -0.0042
     49 C          59.4276   89.0783    6.3709 C.ar    1  UNL1       -0.0003
     50 C          58.9432   87.6799    6.6153 C.ar    1  UNL1       -0.0000
     51 C          58.9578   87.1131    8.0040 C.ar    1  UNL1       -0.0003
     52 C          59.4569   87.9447    9.1483 C.ar    1  UNL1       -0.0042
@<TRIPOS>BOND
     1    19    20    1
     2    20    21    1
     3    20    14    1
     4    14    15   ar
     5    15    16   ar
     6    16    13    1
     7    13     7    1
     8     7     8    1
     9     7     9   am
    10     9    10    2
    11     9    11   am
    12     6    11    1
    13     6     2    1
    14     2     3    2
    15     2     4   am
    16     4     1    1
    17     1    25    1
    18    25    26    1
    19    27    26    1
    20    27    39    1
    21    39    40    1
    22    40    41   ar
    23    41    42   ar
    24    42    43   ar
    25    43    44   ar
    26    44    45   ar
    27    27    28    1
    28    28    29   am
    29    29    30    2
    30    29    32    1
    31    32    33    1
    32    33    34    1
    33    34    35   ar
    34    35    36   ar
    35    36    37   ar
    36    37    38   ar
    37     1    46    1
    38    46    47    1
    39    47    48   ar
    40    48    49   ar
    41    49    50   ar
    42    50    51   ar
    43    51    52   ar
    44     6    22    1
    45    22    23    1
    46    22    24    1
    47    16    17   ar
    48    17    18   ar
    49    18    14   ar
    50    45    40   ar
    51    38    34   ar
    52    52    47   ar
    53    11    12    1
    54     4     5    1
    55    28    31    1
@<TRIPOS>MOLECULE
*****
 52 55 0 0 0
SMALL
GASTEIGER

@<TRIPOS>ATOM
      1 C          64.0662   91.7914   11.1612 C.3     1  UNL1        0.0760
      2 C          61.9248   90.3721   10.7738 C.2     1  UNL1        0.2403
      3 O          62.7447   89.1177   10.8374 O.2     1  UNL1       -0.2733
      4 N          62.5855   91.7090   10.9358 N.am    1  UNL1       -0.3043
      5 H          62.0474   92.5324   10.8941 H       1  UNL1        0.1494
      6 C          60.4441   90.2897   10.5484 C.3     1  UNL1        0.1496
      7 N          59.4391   88.8683    6.9819 N.am    1  UNL1       -0.2567
      8 C          59.5207   87.5857    6.2083 C.3     1  UNL1        0.1168
      9 C          59.9824   88.9377    8.3783 C.2     1  UNL1        0.3046
     10 O          60.6072   87.7246    9.0013 O.2     1  UNL1       -0.2526
     11 N          59.9008   90.2203    9.1519 N.am    1  UNL1       -0.2824
     12 H          59.4907   91.0165    8.7430 H       1  UNL1        0.1514
     13 C          58.8144   90.0813    6.3590 C.3     1  UNL1        0.1413
     14 C          61.3204   91.6328    3.8335 C.ar    1  UNL1        0.0875
     15 N          60.9863   90.6351    4.9026 N.ar    1  UNL1       -0.2453
     16 C          59.5615   90.8577    5.3154 C.ar    1  UNL1        0.0858
     17 C          59.0150   91.9930    4.5015 C.ar    1  UNL1        0.0530
     18 S          60.1020   92.4721    3.5856 S.2     1  UNL1       -0.0705
     19 C          63.6743   90.6888    3.2696 C.3     1  UNL1        0.0069
     20 C          62.6409   91.7677    3.1349 C.3     1  UNL1        0.0465
     21 C          62.9281   92.9813    2.3016 C.3     1  UNL1        0.0069
     22 C          59.5067   90.2768   11.7193 C.3     1  UNL1        0.0270
     23 C          59.5837   89.1706   12.7294 C.3     1  UNL1        0.0022
     24 C          58.4924   91.3700   11.8801 C.3     1  UNL1        0.0022
     25 C          64.6289   91.5744   12.5346 C.3     1  UNL1        0.0216
     26 C          63.8157   90.8619   13.5743 C.3     1  UNL1        0.0217
     27 C          64.4513   90.4442   14.8673 C.3     1  UNL1        0.0792
     28 N          64.4525   88.9993   15.2700 N.am    1  UNL1       -0.2720
     29 C          63.2703   88.4201   15.9891 C.2     1  UNL1        0.4019
     30 O          62.0870   89.2859   16.3054 O.2     1  UNL1       -0.2264
     31 H          65.2292   88.4311   15.0624 H       1  UNL1        0.1527
     32 O          63.2715   86.9752   16.3918 O.3     1  UNL1       -0.4291
     33 C          64.1483   85.9960   15.6691 C.3     1  UNL1        0.2447
     34 C          63.5331   84.8726   14.8884 C.ar    1  UNL1        0.0714
     35 C          62.6567   83.7893   15.4437 C.ar    1  UNL1        0.1053
     36 N          62.2682   82.8824   14.3138 N.ar    1  UNL1       -0.2350
     37 C          62.9047   83.4052   13.0601 C.ar    1  UNL1        0.1343
     38 S          63.6864   84.6351   13.4152 S.2     1  UNL1       -0.0652
     39 C          65.0856   91.4715   15.7574 C.3     1  UNL1        0.0460
     40 C          66.4742   91.9596   15.4685 C.ar    1  UNL1       -0.0205
     41 C          67.2478   91.3836   14.3197 C.ar    1  UNL1       -0.0042
     42 C          68.6364   91.8718   14.0308 C.ar    1  UNL1       -0.0003
     43 C          69.2514   92.9359   14.8907 C.ar    1  UNL1       -0.0000
     44 C          68.4778   93.5119   16.0395 C.ar    1  UNL1       -0.0003
     45 C          67.0892   93.0238   16.3284 C.ar    1  UNL1       -0.0042
     46 C          64.9841   92.0909   10.0132 C.3     1  UNL1        0.0459
     47 C          65.8058   93.3458   10.0177 C.ar    1  UNL1       -0.0205
     48 C          67.1378   93.3725    9.3284 C.ar    1  UNL1       -0.0042
     49 C          67.9595   94.6274    9.3328 C.ar    1  UNL1       -0.0003
     50 C          67.4493   95.8555   10.0265 C.ar    1  UNL1       -0.0000
     51 C          66.1173   95.8288   10.7158 C.ar    1  UNL1       -0.0003
     52 C          65.2956   94.5739   10.7114 C.ar    1  UNL1       -0.0042
@<TRIPOS>BOND
     1    19    20    1
     2    20    21    1
     3    20    14    1
     4    14    15   ar
     5    15    16   ar
     6    16    13    1
     7    13     7    1
     8     7     8    1
     9     7     9   am
    10     9    10    2
    11     9    11   am
    12     6    11    1
    13     6     2    1
    14     2     3    2
    15     2     4   am
    16     4     1    1
    17     1    25    1
    18    25    26    1
    19    27    26    1
    20    27    39    1
    21    39    40    1
    22    40    41   ar
    23    41    42   ar
    24    42    43   ar
    25    43    44   ar
    26    44    45   ar
    27    27    28    1
    28    28    29   am
    29    29    30    2
    30    29    32    1
    31    32    33    1
    32    33    34    1
    33    34    35   ar
    34    35    36   ar
    35    36    37   ar
    36    37    38   ar
    37     1    46    1
    38    46    47    1
    39    47    48   ar
    40    48    49   ar
    41    49    50   ar
    42    50    51   ar
    43    51    52   ar
    44     6    22    1
    45    22    23    1
    46    22    24    1
    47    16    17   ar
    48    17    18   ar
    49    18    14   ar
    50    45    40   ar
    51    38    34   ar
    52    52    47   ar
    53    11    12    1
    54     4     5    1
    55    28    31    1
@<TRIPOS>MOLECULE
*****
 52 55 0 0 0
SMALL
GASTEIGER

@<TRIPOS>ATOM
      1 C          64.8295   91.8563   11.5957 C.3     1  UNL1        0.0760
      2 C          62.8169   90.5689   10.5748 C.2     1  UNL1        0.2403
      3 O          62.7540   91.5592    9.4500 O.2     1  UNL1       -0.2733
      4 N          63.8547   90.7175   11.6477 N.am    1  UNL1       -0.3043
      5 H          63.8960   90.0675   12.3860 H       1  UNL1        0.1494
      6 C          61.8421   89.4301   10.6269 C.3     1  UNL1        0.1496
      7 N          61.7256   86.1646    8.3744 N.am    1  UNL1       -0.2567
      8 C          60.8732   85.5587    7.2992 C.3     1  UNL1        0.1168
      9 C          61.3577   87.4943    8.9630 C.2     1  UNL1        0.3046
     10 O          60.1372   88.2181    8.4764 O.2     1  UNL1       -0.2526
     11 N          62.2101   88.1003   10.0383 N.am    1  UNL1       -0.2824
     12 H          63.0111   87.6253   10.3577 H       1  UNL1        0.1514
     13 C          62.9460   85.4410    8.8610 C.3     1  UNL1        0.1413
     14 C          63.0129   82.7062   11.6146 C.ar    1  UNL1        0.0875
     15 N          63.2368   83.1444   10.1976 N.ar    1  UNL1       -0.2453
     16 C          62.8736   84.5964   10.0986 C.ar    1  UNL1        0.0858
     17 C          62.4251   85.0555   11.4544 C.ar    1  UNL1        0.0530
     18 S          62.5112   83.8873   12.3913 S.2     1  UNL1       -0.0705
     19 C          62.8861   80.1257   11.3400 C.3     1  UNL1        0.0069
     20 C          63.2491   81.3286   12.1593 C.3     1  UNL1        0.0465
     21 C          63.8484   81.1540   13.5232 C.3     1  UNL1        0.0069
     22 C          60.4993   89.6209   11.2675 C.3     1  UNL1        0.0270
     23 C          59.8806   88.5068   12.0588 C.3     1  UNL1        0.0022
     24 C          59.7751   90.9258   11.1168 C.3     1  UNL1        0.0022
     25 C          65.0907   92.6767   12.8239 C.3     1  UNL1        0.0216
     26 C          64.4349   92.3121   14.1228 C.3     1  UNL1        0.0217
     27 C          64.9928   91.1979   14.9579 C.3     1  UNL1        0.0792
     28 N          64.1148   90.4896   15.9465 N.am    1  UNL1       -0.2720
     29 C          63.2234   89.3720   15.4921 C.2     1  UNL1        0.4019
     30 O          63.2100   88.9628   14.0491 O.2     1  UNL1       -0.2264
     31 H          64.1237   90.7582   16.8937 H       1  UNL1        0.1527
     32 O          62.3454   88.6637   16.4807 O.3     1  UNL1       -0.4291
     33 C          62.8749   87.4873   17.2460 C.3     1  UNL1        0.2447
     34 C          63.1807   86.2041   16.5320 C.ar    1  UNL1        0.0714
     35 C          62.3481   84.9568   16.5647 C.ar    1  UNL1        0.1053
     36 N          63.0257   83.9247   15.7128 N.ar    1  UNL1       -0.2350
     37 C          64.2770   84.5342   15.1535 C.ar    1  UNL1        0.1343
     38 S          64.3728   85.9429   15.6598 S.2     1  UNL1       -0.0652
     39 C          66.4287   90.7921   14.8043 C.3     1  UNL1        0.0460
     40 C          67.5211   91.7867   15.0641 C.ar    1  UNL1       -0.0205
     41 C          67.3503   92.8266   16.1315 C.ar    1  UNL1       -0.0042
     42 C          68.4427   93.8211   16.3913 C.ar    1  UNL1       -0.0003
     43 C          69.7059   93.7757   15.5837 C.ar    1  UNL1       -0.0000
     44 C          69.8767   92.7358   14.5163 C.ar    1  UNL1       -0.0003
     45 C          68.7843   91.7413   14.2565 C.ar    1  UNL1       -0.0042
     46 C          65.5432   92.1748   10.3153 C.3     1  UNL1        0.0459
     47 C          66.0883   93.5528   10.0832 C.ar    1  UNL1       -0.0205
     48 C          65.3437   94.7500   10.5953 C.ar    1  UNL1       -0.0042
     49 C          65.8889   96.1280   10.3633 C.ar    1  UNL1       -0.0003
     50 C          67.1786   96.3088    9.6191 C.ar    1  UNL1       -0.0000
     51 C          67.9233   95.1116    9.1070 C.ar    1  UNL1       -0.0003
     52 C          67.3782   93.7336    9.3390 C.ar    1  UNL1       -0.0042
@<TRIPOS>BOND
     1    19    20    1
     2    20    21    1
     3    20    14    1
     4    14    15   ar
     5    15    16   ar
     6    16    13    1
     7    13     7    1
     8     7     8    1
     9     7     9   am
    10     9    10    2
    11     9    11   am
    12     6    11    1
    13     6     2    1
    14     2     3    2
    15     2     4   am
    16     4     1    1
    17     1    25    1
    18    25    26    1
    19    27    26    1
    20    27    39    1
    21    39    40    1
    22    40    41   ar
    23    41    42   ar
    24    42    43   ar
    25    43    44   ar
    26    44    45   ar
    27    27    28    1
    28    28    29   am
    29    29    30    2
    30    29    32    1
    31    32    33    1
    32    33    34    1
    33    34    35   ar
    34    35    36   ar
    35    36    37   ar
    36    37    38   ar
    37     1    46    1
    38    46    47    1
    39    47    48   ar
    40    48    49   ar
    41    49    50   ar
    42    50    51   ar
    43    51    52   ar
    44     6    22    1
    45    22    23    1
    46    22    24    1
    47    16    17   ar
    48    17    18   ar
    49    18    14   ar
    50    45    40   ar
    51    38    34   ar
    52    52    47   ar
    53    11    12    1
    54     4     5    1
    55    28    31    1
@<TRIPOS>MOLECULE
*****
 52 55 0 0 0
SMALL
GASTEIGER

@<TRIPOS>ATOM
      1 C          63.4588   91.3159   11.3027 C.3     1  UNL1        0.0760
      2 C          61.6234   89.6692   10.4841 C.2     1  UNL1        0.2403
      3 O          60.5867   90.7396   10.6554 O.2     1  UNL1       -0.2733
      4 N          63.0595   89.9574   10.8078 N.am    1  UNL1       -0.3043
      5 H          63.7400   89.2549   10.6954 H       1  UNL1        0.1494
      6 C          61.2242   88.3107    9.9892 C.3     1  UNL1        0.1496
      7 N          63.1172   84.8229   10.0349 N.am    1  UNL1       -0.2567
      8 C          63.5903   83.7768    9.0696 C.3     1  UNL1        0.1168
      9 C          62.4073   86.0437    9.5294 C.2     1  UNL1        0.3046
     10 O          62.1705   86.2185    8.0585 O.2     1  UNL1       -0.2526
     11 N          61.9341   87.0898   10.4948 N.am    1  UNL1       -0.2824
     12 H          62.0895   86.9751   11.4601 H       1  UNL1        0.1514
     13 C          63.3539   84.6481   11.5058 C.3     1  UNL1        0.1413
     14 C          62.5327   81.2056   13.0997 C.ar    1  UNL1        0.0875
     15 N          62.0988   82.5346   12.5560 N.ar    1  UNL1       -0.2453
     16 C          63.3247   83.2765   12.1124 C.ar    1  UNL1        0.0858
     17 C          64.5162   82.4061   12.3819 C.ar    1  UNL1        0.0530
     18 S          64.0268   81.1262   12.9921 S.2     1  UNL1       -0.0705
     19 C          60.2478   80.4972   14.1133 C.3     1  UNL1        0.0069
     20 C          61.6309   80.1427   13.6537 C.3     1  UNL1        0.0465
     21 C          62.1122   78.7251   13.7480 C.3     1  UNL1        0.0069
     22 C          60.1152   88.1730    8.9887 C.3     1  UNL1        0.0270
     23 C          59.1274   87.0511    9.1137 C.3     1  UNL1        0.0022
     24 C          59.9939   89.1572    7.8633 C.3     1  UNL1        0.0022
     25 C          63.4570   91.6086   12.7739 C.3     1  UNL1        0.0216
     26 C          64.6747   91.3141   13.5986 C.3     1  UNL1        0.0217
     27 C          64.6360   91.5006   15.0865 C.3     1  UNL1        0.0792
     28 N          63.6442   90.7365   15.9126 N.am    1  UNL1       -0.2720
     29 C          63.4888   89.2571   15.7196 C.2     1  UNL1        0.4019
     30 O          64.3253   88.5418   14.7005 O.2     1  UNL1       -0.2264
     31 H          63.0951   91.2060   16.5815 H       1  UNL1        0.1527
     32 O          62.4969   88.4931   16.5457 O.3     1  UNL1       -0.4291
     33 C          62.9319   87.2720   17.3005 C.3     1  UNL1        0.2447
     34 C          63.1467   85.9777   16.5734 C.ar    1  UNL1        0.0714
     35 C          64.4250   85.5300   15.9290 C.ar    1  UNL1        0.1053
     36 N          64.1892   84.1794   15.3204 N.ar    1  UNL1       -0.2350
     37 C          62.7650   83.7924   15.5887 C.ar    1  UNL1        0.1343
     38 S          62.1207   84.9038   16.3631 S.2     1  UNL1       -0.0652
     39 C          65.5892   92.4511   15.7483 C.3     1  UNL1        0.0460
     40 C          67.0209   92.5082   15.3043 C.ar    1  UNL1       -0.0205
     41 C          68.0245   93.2826   16.1061 C.ar    1  UNL1       -0.0042
     42 C          69.4561   93.3396   15.6621 C.ar    1  UNL1       -0.0003
     43 C          69.8841   92.6222   14.4163 C.ar    1  UNL1       -0.0000
     44 C          68.8805   91.8478   13.6144 C.ar    1  UNL1       -0.0003
     45 C          67.4489   91.7908   14.0584 C.ar    1  UNL1       -0.0042
     46 C          63.8598   92.3819   10.3265 C.3     1  UNL1        0.0459
     47 C          65.2824   92.8545   10.2745 C.ar    1  UNL1       -0.0205
     48 C          66.4039   91.8583   10.2675 C.ar    1  UNL1       -0.0042
     49 C          67.8265   92.3309   10.2156 C.ar    1  UNL1       -0.0003
     50 C          68.1278   93.7996   10.1706 C.ar    1  UNL1       -0.0000
     51 C          67.0063   94.7959   10.1775 C.ar    1  UNL1       -0.0003
     52 C          65.5836   94.3233   10.2295 C.ar    1  UNL1       -0.0042
@<TRIPOS>BOND
     1    19    20    1
     2    20    21    1
     3    20    14    1
     4    14    15   ar
     5    15    16   ar
     6    16    13    1
     7    13     7    1
     8     7     8    1
     9     7     9   am
    10     9    10    2
    11     9    11   am
    12     6    11    1
    13     6     2    1
    14     2     3    2
    15     2     4   am
    16     4     1    1
    17     1    25    1
    18    25    26    1
    19    27    26    1
    20    27    39    1
    21    39    40    1
    22    40    41   ar
    23    41    42   ar
    24    42    43   ar
    25    43    44   ar
    26    44    45   ar
    27    27    28    1
    28    28    29   am
    29    29    30    2
    30    29    32    1
    31    32    33    1
    32    33    34    1
    33    34    35   ar
    34    35    36   ar
    35    36    37   ar
    36    37    38   ar
    37     1    46    1
    38    46    47    1
    39    47    48   ar
    40    48    49   ar
    41    49    50   ar
    42    50    51   ar
    43    51    52   ar
    44     6    22    1
    45    22    23    1
    46    22    24    1
    47    16    17   ar
    48    17    18   ar
    49    18    14   ar
    50    45    40   ar
    51    38    34   ar
    52    52    47   ar
    53    11    12    1
    54     4     5    1
    55    28    31    1
@<TRIPOS>MOLECULE
*****
 52 55 0 0 0
SMALL
GASTEIGER

@<TRIPOS>ATOM
      1 C          62.4059   88.8128   10.9326 C.3     1  UNL1        0.0760
      2 C          62.9103   86.3941   11.7362 C.2     1  UNL1        0.2403
      3 O          63.3217   86.9255   13.0773 O.2     1  UNL1       -0.2733
      4 N          62.4524   87.3378   10.6639 N.am    1  UNL1       -0.3043
      5 H          62.1824   86.9891    9.7837 H       1  UNL1        0.1494
      6 C          62.9568   84.9191   11.4675 C.3     1  UNL1        0.1496
      7 N          62.3078   81.5047   13.3833 N.am    1  UNL1       -0.2567
      8 C          62.2258   80.0364   13.0875 C.3     1  UNL1        0.1168
      9 C          62.5913   82.4778   12.2776 C.2     1  UNL1        0.3046
     10 O          62.7928   81.9826   10.8760 O.2     1  UNL1       -0.2526
     11 N          62.6733   83.9460   12.5733 N.am    1  UNL1       -0.2824
     12 H          62.5411   84.2710   13.4932 H       1  UNL1        0.1514
     13 C          62.1064   81.9998   14.7848 C.3     1  UNL1        0.1413
     14 C          63.2820   85.3959   16.2511 C.ar    1  UNL1        0.0875
     15 N          62.2019   84.3937   15.9703 N.ar    1  UNL1       -0.2453
     16 C          62.8233   83.2304   15.2558 C.ar    1  UNL1        0.0858
     17 C          64.2875   83.5136   15.0950 C.ar    1  UNL1        0.0530
     18 S          64.5711   84.8520   15.7101 S.2     1  UNL1       -0.0705
     19 C          62.5994   86.7479   18.3621 C.3     1  UNL1        0.0069
     20 C          63.1044   86.7111   16.9501 C.3     1  UNL1        0.0465
     21 C          63.4317   87.9896   16.2372 C.3     1  UNL1        0.0069
     22 C          63.2867   84.4172   10.0930 C.3     1  UNL1        0.0270
     23 C          64.4603   83.5055    9.8892 C.3     1  UNL1        0.0022
     24 C          62.4431   84.8271    8.9224 C.3     1  UNL1        0.0022
     25 C          63.3789   89.4314   11.8921 C.3     1  UNL1        0.0216
     26 C          63.3396   90.9080   12.1524 C.3     1  UNL1        0.0217
     27 C          64.5041   91.5845   12.8130 C.3     1  UNL1        0.0792
     28 N          64.9006   92.9703   12.3980 N.am    1  UNL1       -0.2720
     29 C          64.8535   93.3622   10.9508 C.2     1  UNL1        0.4019
     30 O          64.4099   92.3683    9.9188 O.2     1  UNL1       -0.2264
     31 H          65.1918   93.6227   13.0755 H       1  UNL1        0.1527
     32 O          65.2500   94.7480   10.5358 O.3     1  UNL1       -0.4291
     33 C          66.6364   95.0109   10.0272 C.3     1  UNL1        0.2447
     34 C          67.4799   93.8754    9.5279 C.ar    1  UNL1        0.0714
     35 C          68.0723   93.7544    8.1552 C.ar    1  UNL1        0.1053
     36 N          68.8376   92.4658    8.0925 N.ar    1  UNL1       -0.2350
     37 C          68.7183   91.7905    9.4266 C.ar    1  UNL1        0.1343
     38 S          67.8791   92.6617   10.3137 S.2     1  UNL1       -0.0652
     39 C          65.2721   90.8751   13.8886 C.3     1  UNL1        0.0460
     40 C          66.4354   91.5523   14.5507 C.ar    1  UNL1       -0.0205
     41 C          67.7945   91.4967   13.9187 C.ar    1  UNL1       -0.0042
     42 C          68.9577   92.1739   14.5807 C.ar    1  UNL1       -0.0003
     43 C          68.7617   92.9067   15.8748 C.ar    1  UNL1       -0.0000
     44 C          67.4025   92.9622   16.5068 C.ar    1  UNL1       -0.0003
     45 C          66.2394   92.2850   15.8448 C.ar    1  UNL1       -0.0042
     46 C          61.3865   89.6693   10.2418 C.3     1  UNL1        0.0459
     47 C          60.5039   89.0780    9.1828 C.ar    1  UNL1       -0.0205
     48 C          59.9192   87.7096    9.3717 C.ar    1  UNL1       -0.0042
     49 C          59.0367   87.1184    8.3127 C.ar    1  UNL1       -0.0003
     50 C          58.7387   87.8955    7.0648 C.ar    1  UNL1       -0.0000
     51 C          59.3233   89.2639    6.8758 C.ar    1  UNL1       -0.0003
     52 C          60.2059   89.8552    7.9348 C.ar    1  UNL1       -0.0042
@<TRIPOS>BOND
     1    19    20    1
     2    20    21    1
     3    20    14    1
     4    14    15   ar
     5    15    16   ar
     6    16    13    1
     7    13     7    1
     8     7     8    1
     9     7     9   am
    10     9    10    2
    11     9    11   am
    12     6    11    1
    13     6     2    1
    14     2     3    2
    15     2     4   am
    16     4     1    1
    17     1    25    1
    18    25    26    1
    19    27    26    1
    20    27    39    1
    21    39    40    1
    22    40    41   ar
    23    41    42   ar
    24    42    43   ar
    25    43    44   ar
    26    44    45   ar
    27    27    28    1
    28    28    29   am
    29    29    30    2
    30    29    32    1
    31    32    33    1
    32    33    34    1
    33    34    35   ar
    34    35    36   ar
    35    36    37   ar
    36    37    38   ar
    37     1    46    1
    38    46    47    1
    39    47    48   ar
    40    48    49   ar
    41    49    50   ar
    42    50    51   ar
    43    51    52   ar
    44     6    22    1
    45    22    23    1
    46    22    24    1
    47    16    17   ar
    48    17    18   ar
    49    18    14   ar
    50    45    40   ar
    51    38    34   ar
    52    52    47   ar
    53    11    12    1
    54     4     5    1
    55    28    31    1
