@<TRIPOS>MOLECULE
*****
 32 35 0 0 0
SMALL
GASTEIGER

@<TRIPOS>ATOM
      1 C          63.5307   90.4075   13.5703 C.ar    1  UNL1        0.1432
      2 C          64.0699   91.4668   12.6554 C.ar    1  UNL1        0.0384
      3 C          65.4202   92.0660   12.9153 C.ar    1  UNL1        0.0215
      4 C          66.2313   91.6061   14.0903 C.ar    1  UNL1        0.1061
      5 C          65.6921   90.5468   15.0053 C.ar    1  UNL1        0.0259
      6 C          64.3418   89.9475   14.7453 C.ar    1  UNL1        0.0888
      7 C          63.8026   88.8882   15.6604 C.2     1  UNL1        0.2525
      8 O          63.4409   89.2322   17.0749 O.2     1  UNL1       -0.2698
      9 N          63.6252   87.4850   15.1609 N.am    1  UNL1       -0.2660
     10 C          63.9417   86.9943   13.7792 C.3     1  UNL1        0.1236
     11 C          63.6122   85.5322   13.7198 C.ar    1  UNL1        0.0334
     12 C          63.6041   84.3252   12.8292 C.ar    1  UNL1        0.0936
     13 N          63.0790   83.1663   13.6237 N.ar    1  UNL1       -0.2519
     14 N          62.7626   83.6570   15.0055 N.ar    1  UNL1       -0.1723
     15 C          63.0921   85.1192   15.0648 C.ar    1  UNL1        0.0977
     16 C          63.1001   86.3261   15.9554 C.3     1  UNL1        0.1414
     17 C          62.9016   81.7631   13.1243 C.3     1  UNL1        0.1052
     18 C          63.0852   81.3011   11.7090 C.3     1  UNL1        0.0244
     19 C          62.8064   79.8280   11.6625 C.3     1  UNL1        0.0021
     20 C          62.4505   79.3795   13.0489 C.3     1  UNL1        0.0021
     21 C          62.5093   80.5754   13.9524 C.3     1  UNL1        0.0244
     22 S          67.5816   92.2054   14.3502 S.O2    1  UNL1        0.0105
     23 C          68.9319   92.8047   14.6101 C.3     1  UNL1        0.1816
     24 O          67.3536   92.0785   15.8273 O.2     1  UNL1       -0.1686
     25 O          67.8096   92.3322   12.8730 O.2     1  UNL1       -0.1686
     26 O          62.1804   89.8082   13.3104 O.3     1  UNL1       -0.4702
     27 C          62.4842   88.8063   10.9326 C.3     1  UNL1        0.0566
     28 C          61.6950   89.6358   11.9016 C.3     1  UNL1        0.2599
     29 C          60.4203   90.2929   11.4620 C.3     1  UNL1        0.4340
     30 F          59.1456   90.9500   11.0223 F       1  UNL1       -0.1664
     31 F          61.0822   90.7237   10.1867 F       1  UNL1       -0.1664
     32 F          59.7583   89.8621   12.7372 F       1  UNL1       -0.1664
@<TRIPOS>BOND
     1    28    27    1
     2    28    26    1
     3    26     1    1
     4     1     2   ar
     5     2     3   ar
     6     3     4   ar
     7     4    22    1
     8    22    23    1
     9    22    24    2
    10    22    25    2
    11     4     5   ar
    12     5     6   ar
    13     6     7    1
    14     7     8    2
    15     7     9   am
    16     9    10    1
    17    10    11    1
    18    11    12   ar
    19    12    13   ar
    20    13    17    1
    21    17    18    1
    22    18    19    1
    23    19    20    1
    24    20    21    1
    25    13    14   ar
    26    14    15   ar
    27    15    16    1
    28    28    29    1
    29    29    30    1
    30    29    31    1
    31    29    32    1
    32     6     1   ar
    33    16     9    1
    34    15    11   ar
    35    21    17    1
@<TRIPOS>MOLECULE
*****
 32 35 0 0 0
SMALL
GASTEIGER

@<TRIPOS>ATOM
      1 C          64.4605   91.5927   13.4785 C.ar    1  UNL1        0.1432
      2 C          65.3501   92.4306   12.6088 C.ar    1  UNL1        0.0384
      3 C          66.6655   92.9231   13.1352 C.ar    1  UNL1        0.0215
      4 C          67.0914   92.5778   14.5315 C.ar    1  UNL1        0.1061
      5 C          66.2017   91.7398   15.4012 C.ar    1  UNL1        0.0259
      6 C          64.8863   91.2473   14.8748 C.ar    1  UNL1        0.0888
      7 C          63.9967   90.4093   15.7446 C.2     1  UNL1        0.2525
      8 O          63.2846   91.0315   16.9089 O.2     1  UNL1       -0.2698
      9 N          63.8193   88.9493   15.4500 N.am    1  UNL1       -0.2660
     10 C          64.4632   88.1919   14.3267 C.3     1  UNL1        0.1236
     11 C          64.0087   86.7648   14.4096 C.ar    1  UNL1        0.0334
     12 C          64.1257   85.4147   13.7665 C.ar    1  UNL1        0.0936
     13 N          63.2732   84.4557   14.5435 N.ar    1  UNL1       -0.2519
     14 N          62.6294   85.2132   15.6668 N.ar    1  UNL1       -0.1723
     15 C          63.0839   86.6402   15.5840 C.ar    1  UNL1        0.0977
     16 C          62.9669   87.9903   16.2271 C.3     1  UNL1        0.1414
     17 C          63.0958   82.9957   14.2490 C.3     1  UNL1        0.1052
     18 C          61.8792   82.1750   14.5597 C.3     1  UNL1        0.0244
     19 C          62.1354   80.7721   14.0948 C.3     1  UNL1        0.0021
     20 C          63.5102   80.7256   13.4967 C.3     1  UNL1        0.0021
     21 C          64.1038   82.0999   13.5920 C.3     1  UNL1        0.0244
     22 S          68.4067   93.0703   15.0579 S.O2    1  UNL1        0.0105
     23 C          69.7221   93.5629   15.5843 C.3     1  UNL1        0.1816
     24 O          67.6965   93.7673   16.1803 O.2     1  UNL1       -0.1686
     25 O          69.1169   92.3733   13.9354 O.2     1  UNL1       -0.1686
     26 O          63.1452   91.1001   12.9521 O.3     1  UNL1       -0.4702
     27 C          63.4485   91.4781   10.3996 C.3     1  UNL1        0.0566
     28 C          63.0425   90.5962   11.5430 C.3     1  UNL1        0.2599
     29 C          62.5338   89.2103   11.2774 C.3     1  UNL1        0.4340
     30 F          62.0252   87.8245   11.0117 F       1  UNL1       -0.1664
     31 F          63.0742   89.2798    9.8798 F       1  UNL1       -0.1664
     32 F          61.9935   89.1407   12.6749 F       1  UNL1       -0.1664
@<TRIPOS>BOND
     1    28    27    1
     2    28    26    1
     3    26     1    1
     4     1     2   ar
     5     2     3   ar
     6     3     4   ar
     7     4    22    1
     8    22    23    1
     9    22    24    2
    10    22    25    2
    11     4     5   ar
    12     5     6   ar
    13     6     7    1
    14     7     8    2
    15     7     9   am
    16     9    10    1
    17    10    11    1
    18    11    12   ar
    19    12    13   ar
    20    13    17    1
    21    17    18    1
    22    18    19    1
    23    19    20    1
    24    20    21    1
    25    13    14   ar
    26    14    15   ar
    27    15    16    1
    28    28    29    1
    29    29    30    1
    30    29    31    1
    31    29    32    1
    32     6     1   ar
    33    16     9    1
    34    15    11   ar
    35    21    17    1
@<TRIPOS>MOLECULE
*****
 32 35 0 0 0
SMALL
GASTEIGER

@<TRIPOS>ATOM
      1 C          63.7580   90.9491   13.3828 C.ar    1  UNL1        0.1432
      2 C          64.8308   91.8065   13.9859 C.ar    1  UNL1        0.0384
      3 C          65.7266   92.6208   13.1002 C.ar    1  UNL1        0.0215
      4 C          65.5495   92.5777   11.6113 C.ar    1  UNL1        0.1061
      5 C          64.4766   91.7201   11.0082 C.ar    1  UNL1        0.0259
      6 C          63.5809   90.9058   11.8939 C.ar    1  UNL1        0.0888
      7 C          62.5080   90.0484   11.2908 C.2     1  UNL1        0.2525
      8 O          61.4320   90.6724   10.4525 O.2     1  UNL1       -0.2698
      9 N          62.5113   88.5669   11.5258 N.am    1  UNL1       -0.2660
     10 C          63.5169   87.8052   12.3373 C.3     1  UNL1        0.1236
     11 C          63.1365   86.3546   12.3037 C.ar    1  UNL1        0.0334
     12 C          63.5230   84.9873   12.7844 C.ar    1  UNL1        0.0936
     13 N          62.5212   84.0074   12.2493 N.ar    1  UNL1       -0.2519
     14 N          61.5155   84.7693   11.4378 N.ar    1  UNL1       -0.1723
     15 C          61.8959   86.2198   11.4715 C.ar    1  UNL1        0.0977
     16 C          61.5094   87.5872   10.9907 C.3     1  UNL1        0.1414
     17 C          62.5244   82.5261   12.4844 C.3     1  UNL1        0.1052
     18 C          62.9749   81.4795   11.5087 C.3     1  UNL1        0.0244
     19 C          62.8066   80.1376   12.1577 C.3     1  UNL1        0.0021
     20 C          62.2521   80.3549   13.5345 C.3     1  UNL1        0.0021
     21 C          62.0777   81.8310   13.7363 C.3     1  UNL1        0.0244
     22 S          66.4453   93.3919   10.7256 S.O2    1  UNL1        0.0105
     23 C          67.3411   94.2062    9.8399 C.3     1  UNL1        0.1816
     24 O          65.3249   94.3590   10.4815 O.2     1  UNL1       -0.1686
     25 O          67.5657   92.4248   10.9697 O.2     1  UNL1       -0.1686
     26 O          62.8622   90.1348   14.2686 O.3     1  UNL1       -0.4702
     27 C          63.5475   90.7357   16.7015 C.3     1  UNL1        0.0566
     28 C          63.3354   89.7105   15.6273 C.3     1  UNL1        0.2599
     29 C          63.5965   88.2611   15.9117 C.3     1  UNL1        0.4340
     30 F          63.8577   86.8117   16.1960 F       1  UNL1       -0.1664
     31 F          64.7054   88.2626   14.9014 F       1  UNL1       -0.1664
     32 F          62.4878   88.2595   16.9219 F       1  UNL1       -0.1664
@<TRIPOS>BOND
     1    28    27    1
     2    28    26    1
     3    26     1    1
     4     1     2   ar
     5     2     3   ar
     6     3     4   ar
     7     4    22    1
     8    22    23    1
     9    22    24    2
    10    22    25    2
    11     4     5   ar
    12     5     6   ar
    13     6     7    1
    14     7     8    2
    15     7     9   am
    16     9    10    1
    17    10    11    1
    18    11    12   ar
    19    12    13   ar
    20    13    17    1
    21    17    18    1
    22    18    19    1
    23    19    20    1
    24    20    21    1
    25    13    14   ar
    26    14    15   ar
    27    15    16    1
    28    28    29    1
    29    29    30    1
    30    29    31    1
    31    29    32    1
    32     6     1   ar
    33    16     9    1
    34    15    11   ar
    35    21    17    1
@<TRIPOS>MOLECULE
*****
 32 35 0 0 0
SMALL
GASTEIGER

@<TRIPOS>ATOM
      1 C          62.9828   90.4036   11.9298 C.ar    1  UNL1        0.1432
      2 C          62.9042   91.2252   10.6774 C.ar    1  UNL1        0.0384
      3 C          63.9768   92.2276   10.3694 C.ar    1  UNL1        0.0215
      4 C          65.1280   92.4084   11.3140 C.ar    1  UNL1        0.1061
      5 C          65.2065   91.5866   12.5665 C.ar    1  UNL1        0.0259
      6 C          64.1339   90.5843   12.8744 C.ar    1  UNL1        0.0888
      7 C          64.2125   89.7627   14.1269 C.2     1  UNL1        0.2525
      8 O          64.5595   90.4159   15.4319 O.2     1  UNL1       -0.2698
      9 N          63.9442   88.2878   14.0745 N.am    1  UNL1       -0.2660
     10 C          63.5877   87.4995   12.8491 C.3     1  UNL1        0.1236
     11 C          63.4084   86.0668   13.2556 C.ar    1  UNL1        0.0334
     12 C          63.0773   84.6942   12.7495 C.ar    1  UNL1        0.0936
     13 N          63.1183   83.7486   13.9132 N.ar    1  UNL1       -0.2519
     14 N          63.4748   84.5369   15.1386 N.ar    1  UNL1       -0.1723
     15 C          63.6541   85.9696   14.7321 C.ar    1  UNL1        0.0977
     16 C          63.9852   87.3423   15.2383 C.3     1  UNL1        0.1414
     17 C          62.8500   82.2738   13.8608 C.3     1  UNL1        0.1052
     18 C          61.5276   81.6090   14.1047 C.3     1  UNL1        0.0244
     19 C          61.7172   80.1291   13.9499 C.3     1  UNL1        0.0021
     20 C          63.1568   79.8792   13.6104 C.3     1  UNL1        0.0021
     21 C          63.8568   81.2047   13.5553 C.3     1  UNL1        0.0244
     22 S          66.2006   93.4107   11.0060 S.O2    1  UNL1        0.0105
     23 C          67.2731   94.4131   10.6981 C.3     1  UNL1        0.1816
     24 O          66.0287   94.0133   12.3688 O.2     1  UNL1       -0.1686
     25 O          66.3724   92.8080    9.6431 O.2     1  UNL1       -0.1686
     26 O          61.9102   89.4012   12.2378 O.3     1  UNL1       -0.4702
     27 C          59.5588   90.2898   11.5808 C.3     1  UNL1        0.0566
     28 C          60.6866   89.3227   11.3737 C.3     1  UNL1        0.2599
     29 C          60.5908   88.2771   10.3025 C.3     1  UNL1        0.4340
     30 F          60.4951   87.2316    9.2312 F       1  UNL1       -0.1664
     31 F          60.5942   89.3504    9.2545 F       1  UNL1       -0.1664
     32 F          60.5875   87.2038   11.3503 F       1  UNL1       -0.1664
@<TRIPOS>BOND
     1    28    27    1
     2    28    26    1
     3    26     1    1
     4     1     2   ar
     5     2     3   ar
     6     3     4   ar
     7     4    22    1
     8    22    23    1
     9    22    24    2
    10    22    25    2
    11     4     5   ar
    12     5     6   ar
    13     6     7    1
    14     7     8    2
    15     7     9   am
    16     9    10    1
    17    10    11    1
    18    11    12   ar
    19    12    13   ar
    20    13    17    1
    21    17    18    1
    22    18    19    1
    23    19    20    1
    24    20    21    1
    25    13    14   ar
    26    14    15   ar
    27    15    16    1
    28    28    29    1
    29    29    30    1
    30    29    31    1
    31    29    32    1
    32     6     1   ar
    33    16     9    1
    34    15    11   ar
    35    21    17    1
@<TRIPOS>MOLECULE
*****
 32 35 0 0 0
SMALL
GASTEIGER

@<TRIPOS>ATOM
      1 C          63.7771   85.2550   13.4538 C.ar    1  UNL1        0.1432
      2 C          64.5031   85.8467   14.6254 C.ar    1  UNL1        0.0384
      3 C          64.5513   87.3353   14.8040 C.ar    1  UNL1        0.0215
      4 C          63.8733   88.2322   13.8111 C.ar    1  UNL1        0.1061
      5 C          63.1472   87.6404   12.6394 C.ar    1  UNL1        0.0259
      6 C          63.0990   86.1518   12.4608 C.ar    1  UNL1        0.0888
      7 C          62.3729   85.5602   11.2892 C.2     1  UNL1        0.2525
      8 O          62.3335   84.0721   11.1049 O.2     1  UNL1       -0.2698
      9 N          61.6863   86.4567   10.3018 N.am    1  UNL1       -0.2660
     10 C          61.6403   87.9550   10.3547 C.3     1  UNL1        0.1236
     11 C          60.8507   88.4365    9.1738 C.ar    1  UNL1        0.0334
     12 C          60.3342   89.6601    8.4766 C.ar    1  UNL1        0.0936
     13 N          59.5730   89.2156    7.2629 N.ar    1  UNL1       -0.2519
     14 N          59.6191   87.7172    7.2100 N.ar    1  UNL1       -0.1723
     15 C          60.4087   87.2357    8.3910 C.ar    1  UNL1        0.0977
     16 C          60.9251   86.0121    9.0881 C.3     1  UNL1        0.1414
     17 C          58.8864   90.1120    6.2756 C.3     1  UNL1        0.1052
     18 C          59.5553   91.1086    5.3757 C.3     1  UNL1        0.0244
     19 C          58.4926   91.7818    4.5587 C.3     1  UNL1        0.0021
     20 C          57.1670   91.2013    4.9535 C.3     1  UNL1        0.0021
     21 C          57.4104   90.1694    6.0146 C.3     1  UNL1        0.0244
     22 S          63.9214   89.7207   13.9897 S.O2    1  UNL1        0.0105
     23 C          63.9695   91.2092   14.1684 C.3     1  UNL1        0.1816
     24 O          65.2888   89.6038   14.5952 O.2     1  UNL1       -0.1686
     25 O          62.5540   89.8375   13.3842 O.2     1  UNL1       -0.1686
     26 O          63.7289   83.7665   13.2751 O.3     1  UNL1       -0.4702
     27 C          62.1138   83.5606   15.2997 C.3     1  UNL1        0.0566
     28 C          62.8175   82.9375   14.1307 C.3     1  UNL1        0.2599
     29 C          62.6100   81.4854   13.8173 C.3     1  UNL1        0.4340
     30 F          62.4023   80.0332   13.5040 F       1  UNL1       -0.1664
     31 F          61.2607   81.5372   14.4707 F       1  UNL1       -0.1664
     32 F          63.9592   81.4334   13.1640 F       1  UNL1       -0.1664
@<TRIPOS>BOND
     1    28    27    1
     2    28    26    1
     3    26     1    1
     4     1     2   ar
     5     2     3   ar
     6     3     4   ar
     7     4    22    1
     8    22    23    1
     9    22    24    2
    10    22    25    2
    11     4     5   ar
    12     5     6   ar
    13     6     7    1
    14     7     8    2
    15     7     9   am
    16     9    10    1
    17    10    11    1
    18    11    12   ar
    19    12    13   ar
    20    13    17    1
    21    17    18    1
    22    18    19    1
    23    19    20    1
    24    20    21    1
    25    13    14   ar
    26    14    15   ar
    27    15    16    1
    28    28    29    1
    29    29    30    1
    30    29    31    1
    31    29    32    1
    32     6     1   ar
    33    16     9    1
    34    15    11   ar
    35    21    17    1
@<TRIPOS>MOLECULE
*****
 32 35 0 0 0
SMALL
GASTEIGER

@<TRIPOS>ATOM
      1 C          65.0070   90.8531   13.7042 C.ar    1  UNL1        0.1432
      2 C          64.9403   91.9027   12.6346 C.ar    1  UNL1        0.0384
      3 C          63.9176   91.7966   11.5424 C.ar    1  UNL1        0.0215
      4 C          62.9617   90.6409   11.5197 C.ar    1  UNL1        0.1061
      5 C          63.0284   89.5913   12.5893 C.ar    1  UNL1        0.0259
      6 C          64.0510   89.6974   13.6816 C.ar    1  UNL1        0.0888
      7 C          64.1177   88.6478   14.7511 C.2     1  UNL1        0.2525
      8 O          64.4291   89.0374   16.1658 O.2     1  UNL1       -0.2698
      9 N          63.8729   87.2087   14.4060 N.am    1  UNL1       -0.2660
     10 C          63.5525   86.6712   13.0428 C.3     1  UNL1        0.1236
     11 C          63.3871   85.1848   13.1578 C.ar    1  UNL1        0.0334
     12 C          63.0869   83.9339   12.3864 C.ar    1  UNL1        0.0936
     13 N          63.1196   82.7796   13.3439 N.ar    1  UNL1       -0.2519
     14 N          63.4401   83.3173   14.7071 N.ar    1  UNL1       -0.1723
     15 C          63.6054   84.8037   14.5921 C.ar    1  UNL1        0.0977
     16 C          63.9056   86.0546   15.3635 C.3     1  UNL1        0.1414
     17 C          62.8749   81.3406   12.9988 C.3     1  UNL1        0.1052
     18 C          62.4686   80.2608   13.9575 C.3     1  UNL1        0.0244
     19 C          62.3360   78.9815   13.1856 C.3     1  UNL1        0.0021
     20 C          62.6604   79.2706   11.7499 C.3     1  UNL1        0.0021
     21 C          62.9934   80.7286   11.6344 C.3     1  UNL1        0.0244
     22 S          61.9390   90.5348   10.4275 S.O2    1  UNL1        0.0105
     23 C          60.9164   90.4287    9.3353 C.3     1  UNL1        0.1816
     24 O          61.0562   89.7277   11.3325 O.2     1  UNL1       -0.1686
     25 O          62.8220   91.3419    9.5225 O.2     1  UNL1       -0.1686
     26 O          66.0296   90.9592   14.7964 O.3     1  UNL1       -0.4702
     27 C          64.8874   92.4364   16.6028 C.3     1  UNL1        0.0566
     28 C          66.0477   92.1619   15.6927 C.3     1  UNL1        0.2599
     29 C          67.2260   93.0899   15.6787 C.3     1  UNL1        0.4340
     30 F          68.4044   94.0179   15.6649 F       1  UNL1       -0.1664
     31 F          67.9255   92.2168   16.6781 F       1  UNL1       -0.1664
     32 F          66.5267   93.9630   14.6795 F       1  UNL1       -0.1664
@<TRIPOS>BOND
     1    28    27    1
     2    28    26    1
     3    26     1    1
     4     1     2   ar
     5     2     3   ar
     6     3     4   ar
     7     4    22    1
     8    22    23    1
     9    22    24    2
    10    22    25    2
    11     4     5   ar
    12     5     6   ar
    13     6     7    1
    14     7     8    2
    15     7     9   am
    16     9    10    1
    17    10    11    1
    18    11    12   ar
    19    12    13   ar
    20    13    17    1
    21    17    18    1
    22    18    19    1
    23    19    20    1
    24    20    21    1
    25    13    14   ar
    26    14    15   ar
    27    15    16    1
    28    28    29    1
    29    29    30    1
    30    29    31    1
    31    29    32    1
    32     6     1   ar
    33    16     9    1
    34    15    11   ar
    35    21    17    1
@<TRIPOS>MOLECULE
*****
 32 35 0 0 0
SMALL
GASTEIGER

@<TRIPOS>ATOM
      1 C          60.2295   87.1994    8.9415 C.ar    1  UNL1        0.1432
      2 C          60.1755   86.8764    7.4777 C.ar    1  UNL1        0.0384
      3 C          59.8329   87.9477    6.4854 C.ar    1  UNL1        0.0215
      4 C          59.5443   89.3422    6.9568 C.ar    1  UNL1        0.1061
      5 C          59.5984   89.6652    8.4207 C.ar    1  UNL1        0.0259
      6 C          59.9409   88.5938    9.4131 C.ar    1  UNL1        0.0888
      7 C          59.9949   88.9169   10.8768 C.2     1  UNL1        0.2525
      8 O          58.8190   88.6107   11.7563 O.2     1  UNL1       -0.2698
      9 N          61.2248   89.5461   11.4611 N.am    1  UNL1       -0.2660
     10 C          62.4718   89.9081   10.7101 C.3     1  UNL1        0.1236
     11 C          63.4413   90.5095   11.6839 C.ar    1  UNL1        0.0334
     12 C          64.8111   91.1049   11.8215 C.ar    1  UNL1        0.0936
     13 N          65.0101   91.4827   13.2595 N.ar    1  UNL1       -0.2519
     14 N          63.7630   91.1207   14.0106 N.ar    1  UNL1       -0.1723
     15 C          62.7935   90.5193   13.0368 C.ar    1  UNL1        0.0977
     16 C          61.4237   89.9239   12.8991 C.3     1  UNL1        0.1414
     17 C          66.2399   92.1119   13.8438 C.3     1  UNL1        0.1052
     18 C          67.6520   91.8630   13.4032 C.3     1  UNL1        0.0244
     19 C          68.5584   92.6978   14.2584 C.3     1  UNL1        0.0021
     20 C          67.7067   93.4627   15.2277 C.3     1  UNL1        0.0021
     21 C          66.2737   93.1006   14.9714 C.3     1  UNL1        0.0244
     22 S          59.2018   90.4136    5.9645 S.O2    1  UNL1        0.0105
     23 C          58.8592   91.4849    4.9721 C.3     1  UNL1        0.1816
     24 O          60.6547   90.5610    5.6220 O.2     1  UNL1       -0.1686
     25 O          57.7488   90.2661    6.3069 O.2     1  UNL1       -0.1686
     26 O          60.5721   86.1280    9.9339 O.3     1  UNL1       -0.4702
     27 C          62.8771   85.5283    8.8961 C.3     1  UNL1        0.0566
     28 C          61.9961   85.6868   10.0997 C.3     1  UNL1        0.2599
     29 C          62.5390   85.4043   11.4691 C.3     1  UNL1        0.4340
     30 F          63.0820   85.1216   12.8385 F       1  UNL1       -0.1664
     31 F          62.2426   83.9453   11.2856 F       1  UNL1       -0.1664
     32 F          62.8355   86.8631   11.6527 F       1  UNL1       -0.1664
@<TRIPOS>BOND
     1    28    27    1
     2    28    26    1
     3    26     1    1
     4     1     2   ar
     5     2     3   ar
     6     3     4   ar
     7     4    22    1
     8    22    23    1
     9    22    24    2
    10    22    25    2
    11     4     5   ar
    12     5     6   ar
    13     6     7    1
    14     7     8    2
    15     7     9   am
    16     9    10    1
    17    10    11    1
    18    11    12   ar
    19    12    13   ar
    20    13    17    1
    21    17    18    1
    22    18    19    1
    23    19    20    1
    24    20    21    1
    25    13    14   ar
    26    14    15   ar
    27    15    16    1
    28    28    29    1
    29    29    30    1
    30    29    31    1
    31    29    32    1
    32     6     1   ar
    33    16     9    1
    34    15    11   ar
    35    21    17    1
@<TRIPOS>MOLECULE
*****
 32 35 0 0 0
SMALL
GASTEIGER

@<TRIPOS>ATOM
      1 C          64.4177   91.1349   12.4916 C.ar    1  UNL1        0.1432
      2 C          63.9849   91.9976   11.3435 C.ar    1  UNL1        0.0384
      3 C          62.8999   91.5283   10.4201 C.ar    1  UNL1        0.0215
      4 C          62.2478   90.1963   10.6448 C.ar    1  UNL1        0.1061
      5 C          62.6807   89.3336   11.7930 C.ar    1  UNL1        0.0259
      6 C          63.7657   89.8028   12.7164 C.ar    1  UNL1        0.0888
      7 C          64.1985   88.9400   13.8646 C.2     1  UNL1        0.2525
      8 O          64.9554   89.5418   15.0112 O.2     1  UNL1       -0.2698
      9 N          63.8743   87.4755   13.8661 N.am    1  UNL1       -0.2660
     10 C          63.1281   86.7365   12.7950 C.3     1  UNL1        0.1236
     11 C          63.0321   85.2971   13.2059 C.ar    1  UNL1        0.0334
     12 C          62.5115   83.9508   12.7979 C.ar    1  UNL1        0.0936
     13 N          62.8767   82.9680   13.8707 N.ar    1  UNL1       -0.2519
     14 N          63.6230   83.7070   14.9417 N.ar    1  UNL1       -0.1723
     15 C          63.7190   85.1464   14.5308 C.ar    1  UNL1        0.0977
     16 C          64.2396   86.4927   14.9388 C.3     1  UNL1        0.1414
     17 C          62.5526   81.5035   13.8722 C.3     1  UNL1        0.1052
     18 C          61.2023   80.8995   14.1216 C.3     1  UNL1        0.0244
     19 C          61.3371   79.4085   14.0281 C.3     1  UNL1        0.0021
     20 C          62.7705   79.0909   13.7209 C.3     1  UNL1        0.0021
     21 C          63.5218   80.3857   13.6246 C.3     1  UNL1        0.0244
     22 S          61.1629   89.7271    9.7213 S.O2    1  UNL1        0.0105
     23 C          60.0780   89.2579    8.7979 C.3     1  UNL1        0.1816
     24 O          60.3164   90.8994   10.1202 O.2     1  UNL1       -0.1686
     25 O          62.0095   88.5547    9.3226 O.2     1  UNL1       -0.1686
     26 O          65.5027   91.6041   13.4151 O.3     1  UNL1       -0.4702
     27 C          67.9644   91.8055   12.6093 C.3     1  UNL1        0.0566
     28 C          66.6317   92.4367   12.8839 C.3     1  UNL1        0.2599
     29 C          66.4278   93.9004   12.6272 C.3     1  UNL1        0.4340
     30 F          66.2239   95.3642   12.3707 F       1  UNL1       -0.1664
     31 F          66.1700   94.1207   14.0885 F       1  UNL1       -0.1664
     32 F          66.6855   93.6802   11.1660 F       1  UNL1       -0.1664
@<TRIPOS>BOND
     1    28    27    1
     2    28    26    1
     3    26     1    1
     4     1     2   ar
     5     2     3   ar
     6     3     4   ar
     7     4    22    1
     8    22    23    1
     9    22    24    2
    10    22    25    2
    11     4     5   ar
    12     5     6   ar
    13     6     7    1
    14     7     8    2
    15     7     9   am
    16     9    10    1
    17    10    11    1
    18    11    12   ar
    19    12    13   ar
    20    13    17    1
    21    17    18    1
    22    18    19    1
    23    19    20    1
    24    20    21    1
    25    13    14   ar
    26    14    15   ar
    27    15    16    1
    28    28    29    1
    29    29    30    1
    30    29    31    1
    31    29    32    1
    32     6     1   ar
    33    16     9    1
    34    15    11   ar
    35    21    17    1
