@<TRIPOS>MOLECULE
*****
 29 32 0 0 0
SMALL
GASTEIGER

@<TRIPOS>ATOM
      1 C          62.2800   88.3998   11.2880 C.ar    1  UNL1        0.0284
      2 C          63.1068   88.3597   12.5389 C.ar    1  UNL1        0.0027
      3 C          63.8485   89.5839   12.9873 C.ar    1  UNL1        0.0339
      4 C          63.7634   90.8484   12.1849 C.ar    1  UNL1        0.1311
      5 N          62.9365   90.8885   10.9340 N.ar    1  UNL1       -0.2035
      6 C          62.1948   89.6642   10.4855 C.ar    1  UNL1        0.2196
      7 F          61.3680   89.7045    9.2346 F       1  UNL1       -0.1835
      8 N          64.5051   92.0726   12.6333 N.pl3   1  UNL1       -0.3144
      9 H          64.0098   92.8458   12.9883 H       1  UNL1        0.1485
     10 C          66.0015   92.1187   12.5409 C.3     1  UNL1        0.1170
     11 C          66.6612   92.8809   11.4300 C.ar    1  UNL1        0.0188
     12 C          66.4841   94.3671   11.3318 C.ar    1  UNL1        0.0964
     13 N          67.1438   95.1292   10.2209 N.ar    1  UNL1       -0.2402
     14 C          67.9805   94.4051    9.2083 C.ar    1  UNL1        0.1284
     15 C          68.1576   92.9188    9.3065 C.ar    1  UNL1        0.1590
     16 F          68.9943   92.1947    8.2939 F       1  UNL1       -0.2025
     17 C          67.4979   92.1567   10.4174 C.ar    1  UNL1        0.0302
     18 C          61.5383   87.1756   10.8396 C.3     1  UNL1        0.0603
     19 C          63.7405   83.3187   12.8373 C.2     1  UNL1        0.1673
     20 C          64.3708   82.4159   11.8187 C.2     1  UNL1        0.2683
     21 N          64.2784   82.7515   10.3596 N.2     1  UNL1       -0.0278
     22 C          63.5558   83.9900    9.9192 C.2     1  UNL1        0.3719
     23 N          63.3030   84.5753    8.5615 N.2     1  UNL1       -0.0311
     24 C          62.5165   85.8399    8.7410 C.2     1  UNL1        0.2319
     25 C          62.2831   86.0361   10.2097 C.2     1  UNL1        0.0329
     26 C          62.9255   84.8927   10.9378 C.2     1  UNL1        0.0739
     27 C          63.0178   84.5571   12.3969 C.3     1  UNL1        0.1019
     28 C          62.9602   83.6956   15.2866 C.3     1  UNL1        0.2522
     29 O          63.8329   82.9830   14.2964 O.2     1  UNL1       -0.4715
@<TRIPOS>BOND
     1    28    29    1
     2    29    19    1
     3    19    20    2
     4    20    21    1
     5    21    22    2
     6    22    23    1
     7    23    24    2
     8    24    25    1
     9    25    18    1
    10    18     1    1
    11     1     2   ar
    12     2     3   ar
    13     3     4   ar
    14     4     8    1
    15     8    10    1
    16    10    11    1
    17    11    12   ar
    18    12    13   ar
    19    13    14   ar
    20    14    15   ar
    21    15    16    1
    22    15    17   ar
    23     4     5   ar
    24     5     6   ar
    25     6     7    1
    26    25    26    2
    27    26    27    1
    28    27    19    1
    29    26    22    1
    30     6     1   ar
    31    17    11   ar
    32     8     9    1
@<TRIPOS>MOLECULE
*****
 29 32 0 0 0
SMALL
GASTEIGER

@<TRIPOS>ATOM
      1 C          62.0554   88.3171   10.9463 C.ar    1  UNL1        0.0284
      2 C          62.9519   88.4189   12.1445 C.ar    1  UNL1        0.0027
      3 C          63.6011   89.7271   12.4867 C.ar    1  UNL1        0.0339
      4 C          63.3537   90.9337   11.6305 C.ar    1  UNL1        0.1311
      5 N          62.4571   90.8319   10.4322 N.ar    1  UNL1       -0.2035
      6 C          61.8079   89.5237   10.0901 C.ar    1  UNL1        0.2196
      7 F          60.9114   89.4220    8.8919 F       1  UNL1       -0.1835
      8 N          64.0029   92.2419   11.9727 N.pl3   1  UNL1       -0.3144
      9 H          63.4699   92.9658   12.3742 H       1  UNL1        0.1485
     10 C          65.4641   92.4473   11.7030 C.3     1  UNL1        0.1170
     11 C          66.4479   92.4110   12.8347 C.ar    1  UNL1        0.0188
     12 C          67.9038   92.1817   12.5558 C.ar    1  UNL1        0.0964
     13 N          68.8876   92.1454   13.6875 N.ar    1  UNL1       -0.2402
     14 C          68.4156   92.3385   15.0982 C.ar    1  UNL1        0.1284
     15 C          66.9596   92.5679   15.3770 C.ar    1  UNL1        0.1590
     16 F          66.4876   92.7609   16.7877 F       1  UNL1       -0.2025
     17 C          65.9759   92.6041   14.2453 C.ar    1  UNL1        0.0302
     18 C          61.4062   87.0089   10.6042 C.3     1  UNL1        0.0603
     19 C          63.5164   83.1989   12.7831 C.2     1  UNL1        0.1673
     20 C          64.2528   82.3132   11.8223 C.2     1  UNL1        0.2683
     21 N          64.2788   82.6500   10.3609 N.2     1  UNL1       -0.0278
     22 C          63.5685   83.8725    9.8602 C.2     1  UNL1        0.3719
     23 N          63.4202   84.4551    8.4859 N.2     1  UNL1       -0.0311
     24 C          62.5922   85.7009    8.5973 C.2     1  UNL1        0.2319
     25 C          62.2287   85.8883   10.0405 C.2     1  UNL1        0.0329
     26 C          62.8320   84.7582   10.8210 C.2     1  UNL1        0.0739
     27 C          62.8060   84.4214   12.2824 C.3     1  UNL1        0.1019
     28 C          64.1898   83.7492   15.2313 C.3     1  UNL1        0.2522
     29 O          63.4903   82.8621   14.2446 O.2     1  UNL1       -0.4715
@<TRIPOS>BOND
     1    28    29    1
     2    29    19    1
     3    19    20    2
     4    20    21    1
     5    21    22    2
     6    22    23    1
     7    23    24    2
     8    24    25    1
     9    25    18    1
    10    18     1    1
    11     1     2   ar
    12     2     3   ar
    13     3     4   ar
    14     4     8    1
    15     8    10    1
    16    10    11    1
    17    11    12   ar
    18    12    13   ar
    19    13    14   ar
    20    14    15   ar
    21    15    16    1
    22    15    17   ar
    23     4     5   ar
    24     5     6   ar
    25     6     7    1
    26    25    26    2
    27    26    27    1
    28    27    19    1
    29    26    22    1
    30     6     1   ar
    31    17    11   ar
    32     8     9    1
@<TRIPOS>MOLECULE
*****
 29 32 0 0 0
SMALL
GASTEIGER

@<TRIPOS>ATOM
      1 C          62.7040   84.9083    9.7394 C.ar    1  UNL1        0.0284
      2 C          61.9741   85.4371   10.9384 C.ar    1  UNL1        0.0027
      3 C          61.0361   86.5986   10.7935 C.ar    1  UNL1        0.0339
      4 C          60.8280   87.2315    9.4495 C.ar    1  UNL1        0.1311
      5 N          61.5580   86.7027    8.2505 N.ar    1  UNL1       -0.2035
      6 C          62.4959   85.5411    8.3954 C.ar    1  UNL1        0.2196
      7 F          63.2258   85.0124    7.1963 F       1  UNL1       -0.1835
      8 N          59.8901   88.3931    9.3046 N.pl3   1  UNL1       -0.3144
      9 H          58.9388   88.2358    9.1058 H       1  UNL1        0.1485
     10 C          60.4016   89.7943    9.4628 C.3     1  UNL1        0.1170
     11 C          61.4327   90.1028   10.5075 C.ar    1  UNL1        0.0188
     12 C          61.1997   89.6996   11.9334 C.ar    1  UNL1        0.0964
     13 N          62.2308   90.0082   12.9782 N.ar    1  UNL1       -0.2402
     14 C          63.4950   90.7200   12.5971 C.ar    1  UNL1        0.1284
     15 C          63.7279   91.1233   11.1712 C.ar    1  UNL1        0.1590
     16 F          64.9920   91.8352   10.7901 F       1  UNL1       -0.2025
     17 C          62.6968   90.8147   10.1265 C.ar    1  UNL1        0.0302
     18 C          63.6419   83.7467    9.8843 C.3     1  UNL1        0.0603
     19 C          64.3315   84.5342   14.6404 C.2     1  UNL1        0.1673
     20 C          64.0916   83.3104   15.4739 C.2     1  UNL1        0.2683
     21 N          63.6847   82.0242   14.8181 N.2     1  UNL1       -0.0278
     22 C          63.5175   81.9618   13.3287 C.2     1  UNL1        0.3719
     23 N          63.1282   80.8432   12.4084 N.2     1  UNL1       -0.0311
     24 C          63.1274   81.3757   11.0060 C.2     1  UNL1        0.2319
     25 C          63.5162   82.8234   11.0597 C.2     1  UNL1        0.0329
     26 C          63.7573   83.1856   12.4952 C.2     1  UNL1        0.0739
     27 C          64.1643   84.4718   13.1511 C.3     1  UNL1        0.1019
     28 C          64.3790   87.1317   14.6629 C.3     1  UNL1        0.2522
     29 O          64.7384   85.8204   15.2962 O.2     1  UNL1       -0.4715
@<TRIPOS>BOND
     1    28    29    1
     2    29    19    1
     3    19    20    2
     4    20    21    1
     5    21    22    2
     6    22    23    1
     7    23    24    2
     8    24    25    1
     9    25    18    1
    10    18     1    1
    11     1     2   ar
    12     2     3   ar
    13     3     4   ar
    14     4     8    1
    15     8    10    1
    16    10    11    1
    17    11    12   ar
    18    12    13   ar
    19    13    14   ar
    20    14    15   ar
    21    15    16    1
    22    15    17   ar
    23     4     5   ar
    24     5     6   ar
    25     6     7    1
    26    25    26    2
    27    26    27    1
    28    27    19    1
    29    26    22    1
    30     6     1   ar
    31    17    11   ar
    32     8     9    1
@<TRIPOS>MOLECULE
*****
 29 32 0 0 0
SMALL
GASTEIGER

@<TRIPOS>ATOM
      1 C          62.3957   88.5531   11.3989 C.ar    1  UNL1        0.0284
      2 C          62.2554   89.8170   10.6034 C.ar    1  UNL1        0.0027
      3 C          63.0489   91.0327   10.9807 C.ar    1  UNL1        0.0339
      4 C          63.9827   90.9846   12.1536 C.ar    1  UNL1        0.1311
      5 N          64.1231   89.7207   12.9491 N.ar    1  UNL1       -0.2035
      6 C          63.3296   88.5049   12.5718 C.ar    1  UNL1        0.2196
      7 F          63.4700   87.2411   13.3674 F       1  UNL1       -0.1835
      8 N          64.7762   92.2004   12.5308 N.pl3   1  UNL1       -0.3144
      9 H          64.3322   92.9610   12.9708 H       1  UNL1        0.1485
     10 C          66.2462   92.2572   12.2378 C.3     1  UNL1        0.1170
     11 C          66.7538   93.1058   11.1098 C.ar    1  UNL1        0.0188
     12 C          67.6444   92.5064   10.0622 C.ar    1  UNL1        0.0964
     13 N          68.1520   93.3549    8.9343 N.ar    1  UNL1       -0.2402
     14 C          67.7690   94.8030    8.8539 C.ar    1  UNL1        0.1284
     15 C          66.8784   95.4024    9.9016 C.ar    1  UNL1        0.1590
     16 F          66.4954   96.8505    9.8212 F       1  UNL1       -0.2025
     17 C          66.3708   94.5539   11.0295 C.ar    1  UNL1        0.0302
     18 C          61.6022   87.3374   11.0217 C.3     1  UNL1        0.0603
     19 C          63.3381   83.0550   12.5593 C.2     1  UNL1        0.1673
     20 C          63.9184   82.2297   11.4494 C.2     1  UNL1        0.2683
     21 N          63.9178   82.7555   10.0445 N.2     1  UNL1       -0.0278
     22 C          63.3369   84.1066    9.7496 C.2     1  UNL1        0.3719
     23 N          63.1970   84.8821    8.4734 N.2     1  UNL1       -0.0311
     24 C          62.5301   86.1868    8.7945 C.2     1  UNL1        0.2319
     25 C          62.2579   86.2176   10.2693 C.2     1  UNL1        0.0329
     26 C          62.7566   84.9319   10.8596 C.2     1  UNL1        0.0739
     27 C          62.7572   84.4061   12.2644 C.3     1  UNL1        0.1019
     28 C          62.7572   83.3540   15.0739 C.3     1  UNL1        0.2522
     29 O          63.3386   82.5292   13.9641 O.2     1  UNL1       -0.4715
@<TRIPOS>BOND
     1    28    29    1
     2    29    19    1
     3    19    20    2
     4    20    21    1
     5    21    22    2
     6    22    23    1
     7    23    24    2
     8    24    25    1
     9    25    18    1
    10    18     1    1
    11     1     2   ar
    12     2     3   ar
    13     3     4   ar
    14     4     8    1
    15     8    10    1
    16    10    11    1
    17    11    12   ar
    18    12    13   ar
    19    13    14   ar
    20    14    15   ar
    21    15    16    1
    22    15    17   ar
    23     4     5   ar
    24     5     6   ar
    25     6     7    1
    26    25    26    2
    27    26    27    1
    28    27    19    1
    29    26    22    1
    30     6     1   ar
    31    17    11   ar
    32     8     9    1
@<TRIPOS>MOLECULE
*****
 29 32 0 0 0
SMALL
GASTEIGER

@<TRIPOS>ATOM
      1 C          62.9279   84.6596   10.3418 C.ar    1  UNL1        0.0284
      2 C          62.1400   85.2816   11.4563 C.ar    1  UNL1        0.0027
      3 C          62.3770   84.8514   12.8735 C.ar    1  UNL1        0.0339
      4 C          63.4021   83.7990   13.1764 C.ar    1  UNL1        0.1311
      5 N          64.1901   83.1769   12.0618 N.ar    1  UNL1       -0.2035
      6 C          63.9531   83.6072   10.6446 C.ar    1  UNL1        0.2196
      7 F          64.7411   82.9851    9.5302 F       1  UNL1       -0.1835
      8 N          63.6391   83.3688   14.5937 N.pl3   1  UNL1       -0.3144
      9 H          63.2604   82.5209   14.9206 H       1  UNL1        0.1485
     10 C          64.4533   84.2303   15.5128 C.3     1  UNL1        0.1170
     11 C          64.0733   85.6653   15.7282 C.ar    1  UNL1        0.0188
     12 C          63.1752   86.0401   16.8696 C.ar    1  UNL1        0.0964
     13 N          62.7952   87.4751   17.0851 N.ar    1  UNL1       -0.2402
     14 C          63.3133   88.5353   16.1591 C.ar    1  UNL1        0.1284
     15 C          64.2115   88.1605   15.0176 C.ar    1  UNL1        0.1590
     16 F          64.7297   89.2207   14.0917 F       1  UNL1       -0.2025
     17 C          64.5915   86.7255   14.8023 C.ar    1  UNL1        0.0302
     18 C          62.6909   85.0898    8.9245 C.3     1  UNL1        0.0603
     19 C          61.9066   89.6502   10.4426 C.2     1  UNL1        0.1673
     20 C          60.6580   90.2491    9.8660 C.2     1  UNL1        0.2683
     21 N          59.8054   89.4470    8.9281 N.2     1  UNL1       -0.0278
     22 C          60.2013   88.0461    8.5667 C.2     1  UNL1        0.3719
     23 N          59.5647   87.0215    7.6751 N.2     1  UNL1       -0.0311
     24 C          60.4198   85.7894    7.7006 C.2     1  UNL1        0.2319
     25 C          61.5849   86.0524    8.6080 C.2     1  UNL1        0.0329
     26 C          61.4498   87.4472    9.1433 C.2     1  UNL1        0.0739
     27 C          62.3025   88.2493   10.0812 C.3     1  UNL1        0.1019
     28 C          63.7673   91.4202   10.8358 C.3     1  UNL1        0.2522
     29 O          62.7592   90.4522   11.3805 O.2     1  UNL1       -0.4715
@<TRIPOS>BOND
     1    28    29    1
     2    29    19    1
     3    19    20    2
     4    20    21    1
     5    21    22    2
     6    22    23    1
     7    23    24    2
     8    24    25    1
     9    25    18    1
    10    18     1    1
    11     1     2   ar
    12     2     3   ar
    13     3     4   ar
    14     4     8    1
    15     8    10    1
    16    10    11    1
    17    11    12   ar
    18    12    13   ar
    19    13    14   ar
    20    14    15   ar
    21    15    16    1
    22    15    17   ar
    23     4     5   ar
    24     5     6   ar
    25     6     7    1
    26    25    26    2
    27    26    27    1
    28    27    19    1
    29    26    22    1
    30     6     1   ar
    31    17    11   ar
    32     8     9    1
@<TRIPOS>MOLECULE
*****
 29 32 0 0 0
SMALL
GASTEIGER

@<TRIPOS>ATOM
      1 C          62.0008   86.9706   10.6214 C.ar    1  UNL1        0.0284
      2 C          62.7588   87.5442   11.7818 C.ar    1  UNL1        0.0027
      3 C          63.0368   89.0169   11.8417 C.ar    1  UNL1        0.0339
      4 C          62.5570   89.9162   10.7412 C.ar    1  UNL1        0.1311
      5 N          61.7990   89.3425    9.5808 N.ar    1  UNL1       -0.2035
      6 C          61.5209   87.8698    9.5209 C.ar    1  UNL1        0.2196
      7 F          60.7630   87.2963    8.3605 F       1  UNL1       -0.1835
      8 N          62.8350   91.3890   10.8012 N.pl3   1  UNL1       -0.3144
      9 H          62.1053   92.0201   10.9969 H       1  UNL1        0.1485
     10 C          64.2250   91.9001   10.5629 C.3     1  UNL1        0.1170
     11 C          65.0312   92.4415   11.7060 C.ar    1  UNL1        0.0188
     12 C          65.8269   93.7012   11.5324 C.ar    1  UNL1        0.0964
     13 N          66.6331   94.2426   12.6756 N.ar    1  UNL1       -0.2402
     14 C          66.6437   93.5244   13.9924 C.ar    1  UNL1        0.1284
     15 C          65.8479   92.2647   14.1660 C.ar    1  UNL1        0.1590
     16 F          65.8585   91.5465   15.4829 F       1  UNL1       -0.2025
     17 C          65.0418   91.7233   13.0229 C.ar    1  UNL1        0.0302
     18 C          61.7228   85.4978   10.5615 C.3     1  UNL1        0.0603
     19 C          62.8885   84.1080   15.0810 C.2     1  UNL1        0.1673
     20 C          63.9916   83.0921   15.1114 C.2     1  UNL1        0.2683
     21 N          64.6081   82.6158   13.8295 N.2     1  UNL1       -0.0278
     22 C          64.1215   83.1555   12.5173 C.2     1  UNL1        0.3719
     23 N          64.5336   82.8764   11.1023 N.2     1  UNL1       -0.0311
     24 C          63.6852   83.7198   10.1974 C.2     1  UNL1        0.2319
     25 C          62.7487   84.5202   11.0532 C.2     1  UNL1        0.0329
     26 C          63.0184   84.1714   12.4870 C.2     1  UNL1        0.0739
     27 C          62.4019   84.6477   13.7688 C.3     1  UNL1        0.1019
     28 C          62.7345   85.8679   16.9859 C.3     1  UNL1        0.2522
     29 O          62.2720   84.5843   16.3628 O.2     1  UNL1       -0.4715
@<TRIPOS>BOND
     1    28    29    1
     2    29    19    1
     3    19    20    2
     4    20    21    1
     5    21    22    2
     6    22    23    1
     7    23    24    2
     8    24    25    1
     9    25    18    1
    10    18     1    1
    11     1     2   ar
    12     2     3   ar
    13     3     4   ar
    14     4     8    1
    15     8    10    1
    16    10    11    1
    17    11    12   ar
    18    12    13   ar
    19    13    14   ar
    20    14    15   ar
    21    15    16    1
    22    15    17   ar
    23     4     5   ar
    24     5     6   ar
    25     6     7    1
    26    25    26    2
    27    26    27    1
    28    27    19    1
    29    26    22    1
    30     6     1   ar
    31    17    11   ar
    32     8     9    1
@<TRIPOS>MOLECULE
*****
 29 32 0 0 0
SMALL
GASTEIGER

@<TRIPOS>ATOM
      1 C          62.5730   89.3734   10.9486 C.ar    1  UNL1        0.0284
      2 C          63.2511   88.6493   12.0737 C.ar    1  UNL1        0.0027
      3 C          63.0820   87.1662   12.2210 C.ar    1  UNL1        0.0339
      4 C          62.2348   86.4071   11.2433 C.ar    1  UNL1        0.1311
      5 N          61.5567   87.1312   10.1181 N.ar    1  UNL1       -0.2035
      6 C          61.7258   88.6143    9.9707 C.ar    1  UNL1        0.2196
      7 F          61.0477   89.3383    8.8456 F       1  UNL1       -0.1835
      8 N          62.0658   84.9239   11.3906 N.pl3   1  UNL1       -0.3144
      9 H          61.2534   84.4848   11.0494 H       1  UNL1        0.1485
     10 C          63.1345   84.1099   12.0579 C.3     1  UNL1        0.1170
     11 C          62.8244   82.7297   12.5566 C.ar    1  UNL1        0.0188
     12 C          62.4190   82.5220   13.9858 C.ar    1  UNL1        0.0964
     13 N          62.1089   81.1417   14.4845 N.ar    1  UNL1       -0.2402
     14 C          62.2042   79.9691   13.5540 C.ar    1  UNL1        0.1284
     15 C          62.6096   80.1768   12.1248 C.ar    1  UNL1        0.1590
     16 F          62.7049   79.0041   11.1943 F       1  UNL1       -0.2025
     17 C          62.9196   81.5570   11.6262 C.ar    1  UNL1        0.0302
     18 C          62.7421   90.8565   10.8012 C.3     1  UNL1        0.0603
     19 C          64.1089   91.2254   15.4608 C.2     1  UNL1        0.1673
     20 C          65.3721   92.0150   15.6362 C.2     1  UNL1        0.2683
     21 N          66.0688   92.5910   14.4393 N.2     1  UNL1       -0.0278
     22 C          65.5023   92.3775   13.0669 C.2     1  UNL1        0.3719
     23 N          65.9641   92.8205   11.7103 N.2     1  UNL1       -0.0311
     24 C          64.9864   92.3047   10.6964 C.2     1  UNL1        0.2319
     25 C          63.9202   91.5429   11.4264 C.2     1  UNL1        0.0329
     26 C          64.2391   91.5879   12.8915 C.2     1  UNL1        0.0739
     27 C          63.5424   91.0118   14.0885 C.3     1  UNL1        0.1019
     28 C          63.1146   89.1804   16.7175 C.3     1  UNL1        0.2522
     29 O          63.4122   90.6493   16.6578 O.2     1  UNL1       -0.4715
@<TRIPOS>BOND
     1    28    29    1
     2    29    19    1
     3    19    20    2
     4    20    21    1
     5    21    22    2
     6    22    23    1
     7    23    24    2
     8    24    25    1
     9    25    18    1
    10    18     1    1
    11     1     2   ar
    12     2     3   ar
    13     3     4   ar
    14     4     8    1
    15     8    10    1
    16    10    11    1
    17    11    12   ar
    18    12    13   ar
    19    13    14   ar
    20    14    15   ar
    21    15    16    1
    22    15    17   ar
    23     4     5   ar
    24     5     6   ar
    25     6     7    1
    26    25    26    2
    27    26    27    1
    28    27    19    1
    29    26    22    1
    30     6     1   ar
    31    17    11   ar
    32     8     9    1
@<TRIPOS>MOLECULE
*****
 29 32 0 0 0
SMALL
GASTEIGER

@<TRIPOS>ATOM
      1 C          62.0844   87.9733   10.8302 C.ar    1  UNL1        0.0284
      2 C          62.8980   88.0759   12.0862 C.ar    1  UNL1        0.0027
      3 C          63.4656   89.3993   12.5062 C.ar    1  UNL1        0.0339
      4 C          63.2195   90.6203   11.6703 C.ar    1  UNL1        0.1311
      5 N          62.4058   90.5176   10.4143 N.ar    1  UNL1       -0.2035
      6 C          61.8382   89.1942    9.9942 C.ar    1  UNL1        0.2196
      7 F          61.0246   89.0917    8.7383 F       1  UNL1       -0.1835
      8 N          63.7870   91.9437   12.0903 N.pl3   1  UNL1       -0.3144
      9 H          63.1877   92.7089   12.2470 H       1  UNL1        0.1485
     10 C          65.2677   92.1012   12.2715 C.3     1  UNL1        0.1170
     11 C          66.0462   92.9890   11.3465 C.ar    1  UNL1        0.0188
     12 C          66.8681   92.3880   10.2451 C.ar    1  UNL1        0.0964
     13 N          67.6467   93.2758    9.3201 N.ar    1  UNL1       -0.2402
     14 C          67.6032   94.7647    9.4964 C.ar    1  UNL1        0.1284
     15 C          66.7812   95.3658   10.5979 C.ar    1  UNL1        0.1590
     16 F          66.7378   96.8548   10.7742 F       1  UNL1       -0.2025
     17 C          66.0028   94.4780   11.5228 C.ar    1  UNL1        0.0302
     18 C          61.5169   86.6499   10.4102 C.3     1  UNL1        0.0603
     19 C          62.9084   83.4841   13.8391 C.2     1  UNL1        0.1673
     20 C          63.8160   82.4138   13.3094 C.2     1  UNL1        0.2683
     21 N          64.1981   82.4046   11.8590 N.2     1  UNL1       -0.0278
     22 C          63.6726   83.4656   10.9382 C.2     1  UNL1        0.3719
     23 N          63.8743   83.7125    9.4725 N.2     1  UNL1       -0.0311
     24 C          63.0913   84.9354    9.0963 C.2     1  UNL1        0.2319
     25 C          62.4057   85.4443   10.3295 C.2     1  UNL1        0.0329
     26 C          62.7650   84.5359   11.4679 C.2     1  UNL1        0.0739
     27 C          62.3828   84.5451   12.9183 C.3     1  UNL1        0.1019
     28 C          62.7045   84.7401   16.1043 C.3     1  UNL1        0.2522
     29 O          62.5262   83.4933   15.2896 O.2     1  UNL1       -0.4715
@<TRIPOS>BOND
     1    28    29    1
     2    29    19    1
     3    19    20    2
     4    20    21    1
     5    21    22    2
     6    22    23    1
     7    23    24    2
     8    24    25    1
     9    25    18    1
    10    18     1    1
    11     1     2   ar
    12     2     3   ar
    13     3     4   ar
    14     4     8    1
    15     8    10    1
    16    10    11    1
    17    11    12   ar
    18    12    13   ar
    19    13    14   ar
    20    14    15   ar
    21    15    16    1
    22    15    17   ar
    23     4     5   ar
    24     5     6   ar
    25     6     7    1
    26    25    26    2
    27    26    27    1
    28    27    19    1
    29    26    22    1
    30     6     1   ar
    31    17    11   ar
    32     8     9    1
@<TRIPOS>MOLECULE
*****
 29 32 0 0 0
SMALL
GASTEIGER

@<TRIPOS>ATOM
      1 C          63.0185   84.7135    9.7521 C.ar    1  UNL1        0.0284
      2 C          64.0285   83.6296    9.5178 C.ar    1  UNL1        0.0027
      3 C          64.2151   82.5451   10.5371 C.ar    1  UNL1        0.0339
      4 C          63.3917   82.5445   11.7908 C.ar    1  UNL1        0.1311
      5 N          62.3816   83.6284   12.0252 N.ar    1  UNL1       -0.2035
      6 C          62.1949   84.7129   11.0059 C.ar    1  UNL1        0.2196
      7 F          61.1849   85.7968   11.2404 F       1  UNL1       -0.1835
      8 N          63.5783   81.4600   12.8101 N.pl3   1  UNL1       -0.3144
      9 H          63.8678   80.5627   12.5268 H       1  UNL1        0.1485
     10 C          63.3237   81.7426   14.2611 C.3     1  UNL1        0.1170
     11 C          63.4602   83.1403   14.7881 C.ar    1  UNL1        0.0188
     12 C          62.3169   83.7822   15.5166 C.ar    1  UNL1        0.0964
     13 N          62.4534   85.1799   16.0436 N.ar    1  UNL1       -0.2402
     14 C          63.7332   85.9358   15.8421 C.ar    1  UNL1        0.1284
     15 C          64.8766   85.2938   15.1136 C.ar    1  UNL1        0.1590
     16 F          66.1565   86.0497   14.9121 F       1  UNL1       -0.2025
     17 C          64.7401   83.8962   14.5866 C.ar    1  UNL1        0.0302
     18 C          62.8318   85.7980    8.7328 C.3     1  UNL1        0.0603
     19 C          62.2428   90.0457   11.0408 C.2     1  UNL1        0.1673
     20 C          60.8714   90.6241   10.8547 C.2     1  UNL1        0.2683
     21 N          59.8560   89.8948   10.0257 N.2     1  UNL1       -0.0278
     22 C          60.2120   88.5872    9.3829 C.2     1  UNL1        0.3719
     23 N          59.4262   87.6475    8.5173 N.2     1  UNL1       -0.0311
     24 C          60.3119   86.4882    8.1684 C.2     1  UNL1        0.2319
     25 C          61.6452   86.7115    8.8184 C.2     1  UNL1        0.0329
     26 C          61.5834   88.0088    9.5690 C.2     1  UNL1        0.0739
     27 C          62.5988   88.7380   10.3980 C.3     1  UNL1        0.1019
     28 C          63.4776   90.3848   13.3014 C.3     1  UNL1        0.2522
     29 O          63.2582   90.7749   11.8698 O.2     1  UNL1       -0.4715
@<TRIPOS>BOND
     1    28    29    1
     2    29    19    1
     3    19    20    2
     4    20    21    1
     5    21    22    2
     6    22    23    1
     7    23    24    2
     8    24    25    1
     9    25    18    1
    10    18     1    1
    11     1     2   ar
    12     2     3   ar
    13     3     4   ar
    14     4     8    1
    15     8    10    1
    16    10    11    1
    17    11    12   ar
    18    12    13   ar
    19    13    14   ar
    20    14    15   ar
    21    15    16    1
    22    15    17   ar
    23     4     5   ar
    24     5     6   ar
    25     6     7    1
    26    25    26    2
    27    26    27    1
    28    27    19    1
    29    26    22    1
    30     6     1   ar
    31    17    11   ar
    32     8     9    1
