@<TRIPOS>MOLECULE
*****
 29 32 0 0 0
SMALL
GASTEIGER

@<TRIPOS>ATOM
      1 N          63.2348   84.4529   14.6649 N.ar    1  UNL1       -0.2286
      2 C          62.6557   85.2279   15.8112 C.ar    1  UNL1        0.0990
      3 C          63.1189   86.6495   15.6904 C.ar    1  UNL1        0.0338
      4 C          63.9841   86.7531   14.4695 C.ar    1  UNL1        0.0981
      5 N          64.0558   85.3954   13.8357 N.ar    1  UNL1       -0.1680
      6 C          64.4473   88.1747   14.3488 C.3     1  UNL1        0.1414
      7 N          63.8682   88.9498   15.4951 N.am    1  UNL1       -0.2660
      8 C          64.0740   90.4108   15.7648 C.2     1  UNL1        0.2525
      9 O          63.4275   91.0518   16.9571 O.2     1  UNL1       -0.2698
     10 C          63.0472   88.0071   16.3242 C.3     1  UNL1        0.1236
     11 C          60.0608   80.3638   14.2120 C.3     1  UNL1        0.0521
     12 C          61.4420   80.9472   14.1687 C.ar    1  UNL1        0.0609
     13 C          61.6478   82.4083   14.4384 C.ar    1  UNL1        0.0339
     14 C          63.0290   82.9917   14.3951 C.ar    1  UNL1        0.0855
     15 C          64.2045   82.1140   14.0821 C.ar    1  UNL1        0.0398
     16 C          63.9986   80.6529   13.8123 C.ar    1  UNL1        0.1000
     17 N          62.6174   80.0695   13.8556 N.ar    1  UNL1       -0.2480
     18 C          64.9262   91.2311   14.8424 C.ar    1  UNL1        0.0881
     19 C          66.2587   91.7400   15.3065 C.ar    1  UNL1        0.0178
     20 C          67.1110   92.5602   14.3840 C.ar    1  UNL1        0.0688
     21 C          66.6308   92.8716   12.9976 C.ar    1  UNL1        0.0134
     22 C          65.2982   92.3627   12.5334 C.ar    1  UNL1        0.0377
     23 C          64.4460   91.5425   13.4559 C.ar    1  UNL1        0.1427
     24 C          68.4435   93.0691   14.8482 C.1     1  UNL1        0.1004
     25 N          69.7761   93.5779   15.3123 N.1     1  UNL1       -0.1908
     26 O          63.1134   91.0336   12.9918 O.3     1  UNL1       -0.4790
     27 C          62.9864   90.3821   11.6466 C.3     1  UNL1        0.1661
     28 C          63.1165   91.2051   10.3994 C.3     1  UNL1        0.0472
     29 C          62.7294   88.9075   11.5488 C.3     1  UNL1        0.0472
@<TRIPOS>BOND
     1    11    12    1
     2    12    13   ar
     3    13    14   ar
     4    14     1    1
     5     1     2   ar
     6     2     3   ar
     7     3     4   ar
     8     4     5   ar
     9     4     6    1
    10     6     7    1
    11     7     8   am
    12     8     9    2
    13     8    18    1
    14    18    19   ar
    15    19    20   ar
    16    20    24    1
    17    24    25    3
    18    20    21   ar
    19    21    22   ar
    20    22    23   ar
    21    23    26    1
    22    26    27    1
    23    27    28    1
    24    27    29    1
    25     7    10    1
    26    14    15   ar
    27    15    16   ar
    28    16    17   ar
    29    17    12   ar
    30     5     1   ar
    31    23    18   ar
    32    10     3    1
@<TRIPOS>MOLECULE
*****
 29 32 0 0 0
SMALL
GASTEIGER

@<TRIPOS>ATOM
      1 N          63.0882   83.2468   13.5841 N.ar    1  UNL1       -0.2286
      2 C          62.7780   83.7558   14.9605 C.ar    1  UNL1        0.0990
      3 C          63.1175   85.2163   15.0020 C.ar    1  UNL1        0.0338
      4 C          63.6375   85.6099   13.6512 C.ar    1  UNL1        0.0981
      5 N          63.6194   84.3926   12.7749 N.ar    1  UNL1       -0.1680
      6 C          63.9771   87.0703   13.6927 C.3     1  UNL1        0.1414
      7 N          63.6668   87.5794   15.0692 N.am    1  UNL1       -0.2660
      8 C          63.8548   88.9871   15.5518 C.2     1  UNL1        0.2525
      9 O          63.4984   89.3502   16.9629 O.2     1  UNL1       -0.2698
     10 C          63.1356   86.4335   15.8784 C.3     1  UNL1        0.1236
     11 C          63.0266   79.7899    9.7051 C.3     1  UNL1        0.0521
     12 C          62.8694   80.1105   11.1620 C.ar    1  UNL1        0.0609
     13 C          63.0574   81.5183   11.6447 C.ar    1  UNL1        0.0339
     14 C          62.9002   81.8390   13.1015 C.ar    1  UNL1        0.0855
     15 C          62.5551   80.7520   14.0758 C.ar    1  UNL1        0.0398
     16 C          62.3671   79.3442   13.5931 C.ar    1  UNL1        0.1000
     17 N          62.5243   79.0235   12.1362 N.ar    1  UNL1       -0.2480
     18 C          64.3992   90.0319   14.6233 C.ar    1  UNL1        0.0881
     19 C          65.7636   90.6083   14.8602 C.ar    1  UNL1        0.0178
     20 C          66.3080   91.6531   13.9316 C.ar    1  UNL1        0.0688
     21 C          65.4880   92.1214   12.7663 C.ar    1  UNL1        0.0134
     22 C          64.1236   91.5450   12.5293 C.ar    1  UNL1        0.0377
     23 C          63.5792   90.5002   13.4578 C.ar    1  UNL1        0.1427
     24 C          67.6724   92.2295   14.1687 C.1     1  UNL1        0.1004
     25 N          69.0368   92.8059   14.4058 N.1     1  UNL1       -0.1908
     26 O          62.2148   89.9238   13.2208 O.3     1  UNL1       -0.4790
     27 C          61.7271   89.7024   11.8197 C.3     1  UNL1        0.1661
     28 C          60.5064   90.4223   11.3280 C.3     1  UNL1        0.0472
     29 C          62.4600   88.7613   10.9104 C.3     1  UNL1        0.0472
@<TRIPOS>BOND
     1    11    12    1
     2    12    13   ar
     3    13    14   ar
     4    14     1    1
     5     1     2   ar
     6     2     3   ar
     7     3     4   ar
     8     4     5   ar
     9     4     6    1
    10     6     7    1
    11     7     8   am
    12     8     9    2
    13     8    18    1
    14    18    19   ar
    15    19    20   ar
    16    20    24    1
    17    24    25    3
    18    20    21   ar
    19    21    22   ar
    20    22    23   ar
    21    23    26    1
    22    26    27    1
    23    27    28    1
    24    27    29    1
    25     7    10    1
    26    14    15   ar
    27    15    16   ar
    28    16    17   ar
    29    17    12   ar
    30     5     1   ar
    31    23    18   ar
    32    10     3    1
@<TRIPOS>MOLECULE
*****
 29 32 0 0 0
SMALL
GASTEIGER

@<TRIPOS>ATOM
      1 N          59.6724   89.2524    7.2765 N.ar    1  UNL1       -0.2286
      2 C          59.6570   87.7527    7.2956 C.ar    1  UNL1        0.0990
      3 C          60.4381   87.2963    8.4921 C.ar    1  UNL1        0.0338
      4 C          60.9363   88.5141    9.2125 C.ar    1  UNL1        0.0981
      5 N          60.4631   89.7231    8.4612 N.ar    1  UNL1       -0.1680
      6 C          61.7174   88.0578   10.4090 C.3     1  UNL1        0.1414
      7 N          61.7020   86.5579   10.4282 N.am    1  UNL1       -0.2660
      8 C          62.3614   85.6824   11.4521 C.2     1  UNL1        0.2525
      9 O          62.2597   84.1900   11.3403 O.2     1  UNL1       -0.2698
     10 C          60.9113   86.0874    9.2434 C.3     1  UNL1        0.1236
     11 C          60.0172   92.8054    3.5006 C.3     1  UNL1        0.0521
     12 C          59.1854   91.9045    4.3645 C.ar    1  UNL1        0.0609
     13 C          59.8447   91.0289    5.3886 C.ar    1  UNL1        0.0339
     14 C          59.0130   90.1280    6.2525 C.ar    1  UNL1        0.0855
     15 C          57.5218   90.1026    6.0925 C.ar    1  UNL1        0.0398
     16 C          56.8624   90.9782    5.0684 C.ar    1  UNL1        0.1000
     17 N          57.6941   91.8791    4.2045 N.ar    1  UNL1       -0.2480
     18 C          63.1226   86.2993   12.5880 C.ar    1  UNL1        0.0881
     19 C          63.2626   87.7902   12.6749 C.ar    1  UNL1        0.0178
     20 C          64.0238   88.4070   13.8108 C.ar    1  UNL1        0.0688
     21 C          64.6449   87.5330   14.8597 C.ar    1  UNL1        0.0134
     22 C          64.5049   86.0420   14.7727 C.ar    1  UNL1        0.0377
     23 C          63.7438   85.4252   13.6369 C.ar    1  UNL1        0.1427
     24 C          64.1637   89.8980   13.8977 C.1     1  UNL1        0.1004
     25 N          64.3037   91.3889   13.9844 N.1     1  UNL1       -0.1908
     26 O          63.6038   83.9343   13.5499 O.3     1  UNL1       -0.4790
     27 C          62.6050   83.2231   14.4140 C.3     1  UNL1        0.1661
     28 C          61.9228   83.9562   15.5308 C.3     1  UNL1        0.0472
     29 C          62.2885   81.7788   14.1614 C.3     1  UNL1        0.0472
@<TRIPOS>BOND
     1    11    12    1
     2    12    13   ar
     3    13    14   ar
     4    14     1    1
     5     1     2   ar
     6     2     3   ar
     7     3     4   ar
     8     4     5   ar
     9     4     6    1
    10     6     7    1
    11     7     8   am
    12     8     9    2
    13     8    18    1
    14    18    19   ar
    15    19    20   ar
    16    20    24    1
    17    24    25    3
    18    20    21   ar
    19    21    22   ar
    20    22    23   ar
    21    23    26    1
    22    26    27    1
    23    27    28    1
    24    27    29    1
    25     7    10    1
    26    14    15   ar
    27    15    16   ar
    28    16    17   ar
    29    17    12   ar
    30     5     1   ar
    31    23    18   ar
    32    10     3    1
@<TRIPOS>MOLECULE
*****
 29 32 0 0 0
SMALL
GASTEIGER

@<TRIPOS>ATOM
      1 N          63.0551   83.9886   13.9441 N.ar    1  UNL1       -0.2286
      2 C          63.4500   84.7847   15.1526 C.ar    1  UNL1        0.0990
      3 C          63.6695   86.2044   14.7209 C.ar    1  UNL1        0.0338
      4 C          63.4104   86.2857   13.2457 C.ar    1  UNL1        0.0981
      5 N          63.0306   84.9163   12.7656 N.ar    1  UNL1       -0.1680
      6 C          63.6299   87.7053   12.8140 C.3     1  UNL1        0.1414
      7 N          64.0248   88.5015   14.0224 N.am    1  UNL1       -0.2660
      8 C          64.3399   89.9678   14.0479 C.2     1  UNL1        0.2525
      9 O          64.7219   90.6306   15.3382 O.2     1  UNL1       -0.2698
     10 C          64.0493   87.5738   15.2009 C.3     1  UNL1        0.1236
     11 C          59.6001   80.1219   14.2779 C.3     1  UNL1        0.0521
     12 C          61.0125   80.5889   14.0855 C.ar    1  UNL1        0.0609
     13 C          61.3276   82.0552   14.1110 C.ar    1  UNL1        0.0339
     14 C          62.7400   82.5223   13.9187 C.ar    1  UNL1        0.0855
     15 C          63.8373   81.5231   13.7009 C.ar    1  UNL1        0.0398
     16 C          63.5221   80.0568   13.6754 C.ar    1  UNL1        0.1000
     17 N          62.1097   79.5897   13.8677 N.ar    1  UNL1       -0.2480
     18 C          64.2730   90.7713   12.7831 C.ar    1  UNL1        0.0881
     19 C          65.4275   91.6429   12.3863 C.ar    1  UNL1        0.0178
     20 C          65.3606   92.4466   11.1214 C.ar    1  UNL1        0.0688
     21 C          64.1393   92.3786   10.2534 C.ar    1  UNL1        0.0134
     22 C          62.9847   91.5069   10.6501 C.ar    1  UNL1        0.0377
     23 C          63.0516   90.7034   11.9149 C.ar    1  UNL1        0.1427
     24 C          66.5152   93.3181   10.7248 C.1     1  UNL1        0.1004
     25 N          67.6698   94.1896   10.3282 N.1     1  UNL1       -0.1908
     26 O          61.8971   89.8317   12.3116 O.3     1  UNL1       -0.4790
     27 C          60.7421   89.6436   11.3731 C.3     1  UNL1        0.1661
     28 C          59.5006   90.4694   11.5367 C.3     1  UNL1        0.0472
     29 C          60.8287   88.6297   10.2711 C.3     1  UNL1        0.0472
@<TRIPOS>BOND
     1    11    12    1
     2    12    13   ar
     3    13    14   ar
     4    14     1    1
     5     1     2   ar
     6     2     3   ar
     7     3     4   ar
     8     4     5   ar
     9     4     6    1
    10     6     7    1
    11     7     8   am
    12     8     9    2
    13     8    18    1
    14    18    19   ar
    15    19    20   ar
    16    20    24    1
    17    24    25    3
    18    20    21   ar
    19    21    22   ar
    20    22    23   ar
    21    23    26    1
    22    26    27    1
    23    27    28    1
    24    27    29    1
    25     7    10    1
    26    14    15   ar
    27    15    16   ar
    28    16    17   ar
    29    17    12   ar
    30     5     1   ar
    31    23    18   ar
    32    10     3    1
@<TRIPOS>MOLECULE
*****
 29 32 0 0 0
SMALL
GASTEIGER

@<TRIPOS>ATOM
      1 N          57.2258   93.3910   -3.6157 N.ar    1  UNL1       -0.2286
      2 C          57.2692   94.7061   -2.8956 C.ar    1  UNL1        0.0990
      3 C          58.0449   94.5140   -1.6262 C.ar    1  UNL1        0.0338
      4 C          58.4809   93.0802   -1.5618 C.ar    1  UNL1        0.0981
      5 N          57.9746   92.3862   -2.7914 N.ar    1  UNL1       -0.1680
      6 C          59.2566   92.8881   -0.2924 C.3     1  UNL1        0.1414
      7 N          59.3001   94.2033    0.4278 N.am    1  UNL1       -0.2660
      8 C          59.9740   94.4672    1.7416 C.2     1  UNL1        0.2525
      9 O          59.9335   95.8409    2.3428 O.2     1  UNL1       -0.2698
     10 C          58.5512   95.2081   -0.3965 C.3     1  UNL1        0.1236
     11 C          54.6876   90.1669   -6.8036 C.3     1  UNL1        0.0521
     12 C          55.2827   91.5150   -6.5235 C.ar    1  UNL1        0.0609
     13 C          55.9567   91.7790   -5.2097 C.ar    1  UNL1        0.0339
     14 C          56.5518   93.1271   -4.9295 C.ar    1  UNL1        0.0855
     15 C          56.4730   94.2112   -5.9631 C.ar    1  UNL1        0.0398
     16 C          55.7989   93.9472   -7.2770 C.ar    1  UNL1        0.1000
     17 N          55.2038   92.5991   -7.5571 N.ar    1  UNL1       -0.2480
     18 C          60.6886   93.3575    2.4542 C.ar    1  UNL1        0.0881
     19 C          59.9774   92.5638    3.5099 C.ar    1  UNL1        0.0178
     20 C          60.6920   91.4540    4.2226 C.ar    1  UNL1        0.0688
     21 C          62.1176   91.1379    3.8797 C.ar    1  UNL1        0.0134
     22 C          62.8288   91.9316    2.8240 C.ar    1  UNL1        0.0377
     23 C          62.1143   93.0413    2.1114 C.ar    1  UNL1        0.1427
     24 C          59.9808   90.6604    5.2782 C.1     1  UNL1        0.1004
     25 N          59.2696   89.8667    6.3338 N.1     1  UNL1       -0.1908
     26 O          62.8254   93.8350    1.0557 O.3     1  UNL1       -0.4790
     27 C          64.2506   94.2534    1.2647 C.3     1  UNL1        0.1661
     28 C          64.5603   95.5037    2.0333 C.3     1  UNL1        0.0472
     29 C          65.3662   93.4214    0.7050 C.3     1  UNL1        0.0472
@<TRIPOS>BOND
     1    11    12    1
     2    12    13   ar
     3    13    14   ar
     4    14     1    1
     5     1     2   ar
     6     2     3   ar
     7     3     4   ar
     8     4     5   ar
     9     4     6    1
    10     6     7    1
    11     7     8   am
    12     8     9    2
    13     8    18    1
    14    18    19   ar
    15    19    20   ar
    16    20    24    1
    17    24    25    3
    18    20    21   ar
    19    21    22   ar
    20    22    23   ar
    21    23    26    1
    22    26    27    1
    23    27    28    1
    24    27    29    1
    25     7    10    1
    26    14    15   ar
    27    15    16   ar
    28    16    17   ar
    29    17    12   ar
    30     5     1   ar
    31    23    18   ar
    32    10     3    1
@<TRIPOS>MOLECULE
*****
 29 32 0 0 0
SMALL
GASTEIGER

@<TRIPOS>ATOM
      1 N          63.1387   84.3826   14.5822 N.ar    1  UNL1       -0.2286
      2 C          62.9618   85.1046   15.8850 C.ar    1  UNL1        0.0990
      3 C          63.3357   86.5417   15.6729 C.ar    1  UNL1        0.0338
      4 C          63.7436   86.7078   14.2390 C.ar    1  UNL1        0.0981
      5 N          63.6218   85.3734   13.5649 N.ar    1  UNL1       -0.1680
      6 C          64.1174   88.1449   14.0270 C.3     1  UNL1        0.1414
      7 N          63.9406   88.8670   15.3298 N.am    1  UNL1       -0.2660
      8 C          64.2011   90.3240   15.5727 C.2     1  UNL1        0.2525
      9 O          63.9782   90.9088   16.9360 O.2     1  UNL1       -0.2698
     10 C          63.4575   87.8761   16.3471 C.3     1  UNL1        0.1236
     11 C          59.8159   80.4035   14.2270 C.3     1  UNL1        0.0521
     12 C          61.2167   80.9359   14.1616 C.ar    1  UNL1        0.0609
     13 C          61.4773   82.3930   14.4046 C.ar    1  UNL1        0.0339
     14 C          62.8781   82.9255   14.3392 C.ar    1  UNL1        0.0855
     15 C          64.0183   82.0009   14.0309 C.ar    1  UNL1        0.0398
     16 C          63.7576   80.5438   13.7880 C.ar    1  UNL1        0.1000
     17 N          62.3569   80.0113   13.8533 N.ar    1  UNL1       -0.2480
     18 C          64.6846   91.1965   14.4525 C.ar    1  UNL1        0.0881
     19 C          64.0386   91.1092   13.1015 C.ar    1  UNL1        0.0178
     20 C          64.5221   91.9817   11.9811 C.ar    1  UNL1        0.0688
     21 C          65.6516   92.9413   12.2117 C.ar    1  UNL1        0.0134
     22 C          66.2977   93.0287   13.5627 C.ar    1  UNL1        0.0377
     23 C          65.8142   92.1562   14.6830 C.ar    1  UNL1        0.1427
     24 C          63.8761   91.8943   10.6302 C.1     1  UNL1        0.1004
     25 N          63.2300   91.8067    9.2793 N.1     1  UNL1       -0.1908
     26 O          66.4602   92.2435   16.0339 O.3     1  UNL1       -0.4790
     27 C          67.8765   92.7214   16.1585 C.3     1  UNL1        0.1661
     28 C          68.2233   94.1386   15.8104 C.3     1  UNL1        0.0472
     29 C          68.9462   91.7820   16.6313 C.3     1  UNL1        0.0472
@<TRIPOS>BOND
     1    11    12    1
     2    12    13   ar
     3    13    14   ar
     4    14     1    1
     5     1     2   ar
     6     2     3   ar
     7     3     4   ar
     8     4     5   ar
     9     4     6    1
    10     6     7    1
    11     7     8   am
    12     8     9    2
    13     8    18    1
    14    18    19   ar
    15    19    20   ar
    16    20    24    1
    17    24    25    3
    18    20    21   ar
    19    21    22   ar
    20    22    23   ar
    21    23    26    1
    22    26    27    1
    23    27    28    1
    24    27    29    1
    25     7    10    1
    26    14    15   ar
    27    15    16   ar
    28    16    17   ar
    29    17    12   ar
    30     5     1   ar
    31    23    18   ar
    32    10     3    1
@<TRIPOS>MOLECULE
*****
 29 32 0 0 0
SMALL
GASTEIGER

@<TRIPOS>ATOM
      1 N          65.0157   91.2175   13.7859 N.ar    1  UNL1       -0.2286
      2 C          63.7396   90.8976   14.5064 C.ar    1  UNL1        0.0990
      3 C          62.7983   90.2663   13.5238 C.ar    1  UNL1        0.0338
      4 C          63.4927   90.1961   12.1961 C.ar    1  UNL1        0.0981
      5 N          64.8631   90.7840   12.3580 N.ar    1  UNL1       -0.1680
      6 C          62.5514   89.5648   11.2135 C.3     1  UNL1        0.1414
      7 N          61.2752   89.2448   11.9340 N.am    1  UNL1       -0.2660
      8 C          60.0599   88.6039   11.3323 C.2     1  UNL1        0.2525
      9 O          58.8508   88.3442   12.1813 O.2     1  UNL1       -0.2698
     10 C          61.4278   89.6784   13.3619 C.3     1  UNL1        0.1236
     11 C          70.1312   92.1257   13.7037 C.3     1  UNL1        0.0521
     12 C          68.7889   92.3126   14.3465 C.ar    1  UNL1        0.0609
     13 C          67.5734   91.6716   13.7448 C.ar    1  UNL1        0.0339
     14 C          66.2311   91.8585   14.3876 C.ar    1  UNL1        0.0855
     15 C          66.1041   92.6863   15.6320 C.ar    1  UNL1        0.0398
     16 C          67.3196   93.3272   16.2336 C.ar    1  UNL1        0.1000
     17 N          68.6619   93.1404   15.5909 N.ar    1  UNL1       -0.2480
     18 C          60.0535   88.2226    9.8816 C.ar    1  UNL1        0.0881
     19 C          59.6692   89.2334    8.8422 C.ar    1  UNL1        0.0178
     20 C          59.6628   88.8521    7.3914 C.ar    1  UNL1        0.0688
     21 C          60.0407   87.4601    6.9801 C.ar    1  UNL1        0.0134
     22 C          60.4251   86.4491    8.0196 C.ar    1  UNL1        0.0377
     23 C          60.4315   86.8304    9.4703 C.ar    1  UNL1        0.1427
     24 C          59.2784   89.8630    6.3520 C.1     1  UNL1        0.1004
     25 N          58.8939   90.8739    5.3126 N.1     1  UNL1       -0.1908
     26 O          60.8158   85.8196   10.5097 O.3     1  UNL1       -0.4790
     27 C          62.2627   85.5101   10.7560 C.3     1  UNL1        0.1661
     28 C          62.8969   85.8805   12.0639 C.3     1  UNL1        0.0472
     29 C          63.0755   84.8301    9.6944 C.3     1  UNL1        0.0472
@<TRIPOS>BOND
     1    11    12    1
     2    12    13   ar
     3    13    14   ar
     4    14     1    1
     5     1     2   ar
     6     2     3   ar
     7     3     4   ar
     8     4     5   ar
     9     4     6    1
    10     6     7    1
    11     7     8   am
    12     8     9    2
    13     8    18    1
    14    18    19   ar
    15    19    20   ar
    16    20    24    1
    17    24    25    3
    18    20    21   ar
    19    21    22   ar
    20    22    23   ar
    21    23    26    1
    22    26    27    1
    23    27    28    1
    24    27    29    1
    25     7    10    1
    26    14    15   ar
    27    15    16   ar
    28    16    17   ar
    29    17    12   ar
    30     5     1   ar
    31    23    18   ar
    32    10     3    1
@<TRIPOS>MOLECULE
*****
 29 32 0 0 0
SMALL
GASTEIGER

@<TRIPOS>ATOM
      1 N          55.2398   95.8546   -2.5274 N.ar    1  UNL1       -0.2286
      2 C          56.3489   96.8554   -2.6617 C.ar    1  UNL1        0.0990
      3 C          57.5105   96.3724   -1.8448 C.ar    1  UNL1        0.0338
      4 C          57.1193   95.0730   -1.2056 C.ar    1  UNL1        0.0981
      5 N          55.7159   94.7530   -1.6274 N.ar    1  UNL1       -0.1680
      6 C          58.2809   94.5900   -0.3887 C.3     1  UNL1        0.1414
      7 N          59.3901   95.5909   -0.5230 N.am    1  UNL1       -0.2660
      8 C          60.7386   95.5052    0.1283 C.2     1  UNL1        0.2525
      9 O          61.7517   96.5877   -0.0996 O.2     1  UNL1       -0.2698
     10 C          58.9139   96.6925   -1.4229 C.3     1  UNL1        0.1236
     11 C          52.3318   96.4619   -6.7906 C.3     1  UNL1        0.0521
     12 C          52.4372   96.2439   -5.3103 C.ar    1  UNL1        0.0609
     13 C          53.7857   96.1582   -4.6589 C.ar    1  UNL1        0.0339
     14 C          53.8912   95.9402   -3.1786 C.ar    1  UNL1        0.0855
     15 C          52.6482   95.8078   -2.3496 C.ar    1  UNL1        0.0398
     16 C          51.2997   95.8935   -3.0009 C.ar    1  UNL1        0.1000
     17 N          51.1942   96.1115   -4.4812 N.ar    1  UNL1       -0.2480
     18 C          61.0740   94.3371    1.0075 C.ar    1  UNL1        0.0881
     19 C          60.1334   93.9275    2.1017 C.ar    1  UNL1        0.0178
     20 C          60.4688   92.7593    2.9810 C.ar    1  UNL1        0.0688
     21 C          61.7449   92.0009    2.7659 C.ar    1  UNL1        0.0134
     22 C          62.6856   92.4105    1.6716 C.ar    1  UNL1        0.0377
     23 C          62.3501   93.5786    0.7925 C.ar    1  UNL1        0.1427
     24 C          59.5281   92.3498    4.0752 C.1     1  UNL1        0.1004
     25 N          58.5873   91.9405    5.1694 N.1     1  UNL1       -0.1908
     26 O          63.2908   93.9882   -0.3018 O.3     1  UNL1       -0.4790
     27 C          64.6796   94.4442    0.0347 C.3     1  UNL1        0.1661
     28 C          65.1141   95.8390   -0.3057 C.3     1  UNL1        0.0472
     29 C          65.6339   93.5055    0.7115 C.3     1  UNL1        0.0472
@<TRIPOS>BOND
     1    11    12    1
     2    12    13   ar
     3    13    14   ar
     4    14     1    1
     5     1     2   ar
     6     2     3   ar
     7     3     4   ar
     8     4     5   ar
     9     4     6    1
    10     6     7    1
    11     7     8   am
    12     8     9    2
    13     8    18    1
    14    18    19   ar
    15    19    20   ar
    16    20    24    1
    17    24    25    3
    18    20    21   ar
    19    21    22   ar
    20    22    23   ar
    21    23    26    1
    22    26    27    1
    23    27    28    1
    24    27    29    1
    25     7    10    1
    26    14    15   ar
    27    15    16   ar
    28    16    17   ar
    29    17    12   ar
    30     5     1   ar
    31    23    18   ar
    32    10     3    1
@<TRIPOS>MOLECULE
*****
 29 32 0 0 0
SMALL
GASTEIGER

@<TRIPOS>ATOM
      1 N          57.5446   94.9160   -3.9770 N.ar    1  UNL1       -0.2286
      2 C          58.2711   96.1404   -3.5050 C.ar    1  UNL1        0.0990
      3 C          59.0554   95.7710   -2.2809 C.ar    1  UNL1        0.0338
      4 C          58.8136   94.3181   -1.9964 C.ar    1  UNL1        0.0981
      5 N          57.8798   93.7897   -3.0447 N.ar    1  UNL1       -0.1680
      6 C          59.5979   93.9487   -0.7724 C.3     1  UNL1        0.1414
      7 N          60.3244   95.1732   -0.3002 N.am    1  UNL1       -0.2660
      8 C          61.2276   95.2568    0.8943 C.2     1  UNL1        0.2525
      9 O          61.8887   96.5567    1.2454 O.2     1  UNL1       -0.2698
     10 C          59.9891   96.2994   -1.2326 C.3     1  UNL1        0.1236
     11 C          53.1150   96.2047   -6.3683 C.3     1  UNL1        0.0521
     12 C          54.4265   95.4767   -6.3673 C.ar    1  UNL1        0.0609
     13 C          55.3298   95.5603   -5.1727 C.ar    1  UNL1        0.0339
     14 C          56.6413   94.8323   -5.1717 C.ar    1  UNL1        0.0855
     15 C          57.0496   94.0208   -6.3653 C.ar    1  UNL1        0.0398
     16 C          56.1463   93.9373   -7.5599 C.ar    1  UNL1        0.1000
     17 N          54.8348   94.6652   -7.5610 N.ar    1  UNL1       -0.2480
     18 C          61.4698   94.0404    1.7380 C.ar    1  UNL1        0.0881
     19 C          60.4133   93.5664    2.6914 C.ar    1  UNL1        0.0178
     20 C          60.6555   92.3500    3.5352 C.ar    1  UNL1        0.0688
     21 C          61.9542   91.6077    3.4255 C.ar    1  UNL1        0.0134
     22 C          63.0109   92.0816    2.4720 C.ar    1  UNL1        0.0377
     23 C          62.7686   93.2980    1.6283 C.ar    1  UNL1        0.1427
     24 C          59.5989   91.8762    4.4886 C.1     1  UNL1        0.1004
     25 N          58.5422   91.4022    5.4418 N.1     1  UNL1       -0.1908
     26 O          63.8252   93.7719    0.6749 O.3     1  UNL1       -0.4790
     27 C          64.7195   94.9149    1.0542 C.3     1  UNL1        0.1661
     28 C          65.3635   95.7494   -0.0130 C.3     1  UNL1        0.0472
     29 C          64.9697   95.2235    2.5006 C.3     1  UNL1        0.0472
@<TRIPOS>BOND
     1    11    12    1
     2    12    13   ar
     3    13    14   ar
     4    14     1    1
     5     1     2   ar
     6     2     3   ar
     7     3     4   ar
     8     4     5   ar
     9     4     6    1
    10     6     7    1
    11     7     8   am
    12     8     9    2
    13     8    18    1
    14    18    19   ar
    15    19    20   ar
    16    20    24    1
    17    24    25    3
    18    20    21   ar
    19    21    22   ar
    20    22    23   ar
    21    23    26    1
    22    26    27    1
    23    27    28    1
    24    27    29    1
    25     7    10    1
    26    14    15   ar
    27    15    16   ar
    28    16    17   ar
    29    17    12   ar
    30     5     1   ar
    31    23    18   ar
    32    10     3    1
