@<TRIPOS>MOLECULE
*****
 29 33 0 0 0
SMALL
GASTEIGER

@<TRIPOS>ATOM
      1 C          61.7953   88.8889   10.2391 C.ar    1  UNL1       -0.0145
      2 C          62.5752   88.7526   11.5132 C.ar    1  UNL1       -0.0023
      3 C          63.5149   89.8421   11.9375 C.ar    1  UNL1        0.0188
      4 C          63.6748   91.0678   11.0879 C.ar    1  UNL1        0.0824
      5 C          62.8949   91.2041    9.8138 C.ar    1  UNL1        0.0188
      6 C          61.9552   90.1147    9.3895 C.ar    1  UNL1       -0.0023
      7 N          64.6145   92.1572   11.5123 N.ar    1  UNL1       -0.2341
      8 N          65.0568   93.3175   10.6708 N.ar    1  UNL1       -0.1617
      9 C          65.9925   94.1550   11.4911 C.ar    1  UNL1        0.1696
     10 C          66.1287   93.5123   12.8396 C.ar    1  UNL1        0.0148
     11 C          65.2770   92.2776   12.8527 C.ar    1  UNL1        0.0579
     12 C          65.2147   91.4224   14.0834 C.3     1  UNL1        0.0456
     13 C          66.0041   91.8020   15.3011 C.3     1  UNL1        0.0066
     14 C          66.8558   93.0367   15.2880 C.3     1  UNL1        0.0052
     15 C          66.9181   93.8918   14.0572 C.3     1  UNL1        0.0291
     16 C          66.6728   95.4141   11.0418 C.3     1  UNL1        0.4362
     17 F          67.3530   96.6733   10.5926 F       1  UNL1       -0.1644
     18 F          65.7934   96.2152   11.9556 F       1  UNL1       -0.1644
     19 F          67.5521   94.6131   10.1281 F       1  UNL1       -0.1644
     20 C          60.8556   87.7995    9.8148 C.3     1  UNL1        0.0878
     21 C          59.7689   87.0886    9.0640 C.3     1  UNL1        0.0135
     22 C          60.1061   88.5110    8.7276 C.3     1  UNL1        0.0135
     23 O          60.7672   86.6947   12.1646 O.2     1  UNL1       -0.2746
     24 C          61.2788   86.7097   10.7546 C.2     1  UNL1        0.2285
     25 N          62.2136   85.6350   10.2844 N.am    1  UNL1       -0.2793
     26 C          62.7217   84.4873   11.1057 C.3     1  UNL1        0.0935
     27 C          63.6266   83.6622   10.2393 C.3     1  UNL1        0.0233
     28 C          63.6777   84.3000    8.8827 C.3     1  UNL1        0.0233
     29 C          62.8044   85.5193    8.9105 C.3     1  UNL1        0.0935
@<TRIPOS>BOND
     1    23    24    2
     2    24    25   am
     3    25    26    1
     4    26    27    1
     5    27    28    1
     6    28    29    1
     7    24    20    1
     8    20     1    1
     9     1     2   ar
    10     2     3   ar
    11     3     4   ar
    12     4     7    1
    13     7     8   ar
    14     8     9   ar
    15     9    16    1
    16    16    17    1
    17    16    18    1
    18    16    19    1
    19     9    10   ar
    20    10    11   ar
    21    11    12    1
    22    12    13    1
    23    13    14    1
    24    14    15    1
    25     4     5   ar
    26     5     6   ar
    27    20    21    1
    28    21    22    1
    29    29    25    1
    30    22    20    1
    31     6     1   ar
    32    11     7   ar
    33    15    10    1
@<TRIPOS>MOLECULE
*****
 29 33 0 0 0
SMALL
GASTEIGER

@<TRIPOS>ATOM
      1 C          62.7261   88.2833   11.6875 C.ar    1  UNL1       -0.0145
      2 C          63.4777   88.4989   12.9676 C.ar    1  UNL1       -0.0023
      3 C          64.2684   89.7574   13.1703 C.ar    1  UNL1        0.0188
      4 C          64.3075   90.8002   12.0929 C.ar    1  UNL1        0.0824
      5 C          63.5559   90.5847   10.8128 C.ar    1  UNL1        0.0188
      6 C          62.7652   89.3262   10.6101 C.ar    1  UNL1       -0.0023
      7 N          65.0982   92.0587   12.2956 N.ar    1  UNL1       -0.2341
      8 N          65.2461   93.1761   11.3058 N.ar    1  UNL1       -0.1617
      9 C          66.1191   94.2287   11.9222 C.ar    1  UNL1        0.1696
     10 C          66.5108   93.7618   13.2928 C.ar    1  UNL1        0.0148
     11 C          65.8799   92.4207   13.5236 C.ar    1  UNL1        0.0579
     12 C          66.0986   91.7024   14.8221 C.3     1  UNL1        0.0456
     13 C          66.9483   92.3253   15.8898 C.3     1  UNL1        0.0066
     14 C          67.5792   93.6664   15.6590 C.3     1  UNL1        0.0052
     15 C          67.3605   94.3847   14.3605 C.3     1  UNL1        0.0291
     16 C          66.5286   95.5212   11.2805 C.3     1  UNL1        0.4362
     17 F          66.9380   96.8138   10.6389 F       1  UNL1       -0.1644
     18 F          65.7738   96.2815   12.3304 F       1  UNL1       -0.1644
     19 F          67.2833   94.7610   10.2307 F       1  UNL1       -0.1644
     20 C          61.9354   87.0248   11.4849 C.3     1  UNL1        0.0878
     21 C          61.5775   85.5682   11.4940 C.3     1  UNL1        0.0135
     22 C          62.9069   86.0172   12.0242 C.3     1  UNL1        0.0135
     23 O          59.8776   88.6039   11.6328 O.2     1  UNL1       -0.2746
     24 C          60.6894   87.5954   10.8752 C.2     1  UNL1        0.2285
     25 N          60.2551   87.1575    9.5078 N.am    1  UNL1       -0.2793
     26 C          59.0386   87.6377    8.7733 C.3     1  UNL1        0.0935
     27 C          58.9927   86.9394    7.4465 C.3     1  UNL1        0.0233
     28 C          60.1807   86.0278    7.3610 C.3     1  UNL1        0.0233
     29 C          60.9610   86.1625    8.6350 C.3     1  UNL1        0.0935
@<TRIPOS>BOND
     1    23    24    2
     2    24    25   am
     3    25    26    1
     4    26    27    1
     5    27    28    1
     6    28    29    1
     7    24    20    1
     8    20     1    1
     9     1     2   ar
    10     2     3   ar
    11     3     4   ar
    12     4     7    1
    13     7     8   ar
    14     8     9   ar
    15     9    16    1
    16    16    17    1
    17    16    18    1
    18    16    19    1
    19     9    10   ar
    20    10    11   ar
    21    11    12    1
    22    12    13    1
    23    13    14    1
    24    14    15    1
    25     4     5   ar
    26     5     6   ar
    27    20    21    1
    28    21    22    1
    29    29    25    1
    30    22    20    1
    31     6     1   ar
    32    11     7   ar
    33    15    10    1
@<TRIPOS>MOLECULE
*****
 29 33 0 0 0
SMALL
GASTEIGER

@<TRIPOS>ATOM
      1 C          62.1177   87.9438   10.4158 C.ar    1  UNL1       -0.0145
      2 C          62.6580   87.6172   11.7764 C.ar    1  UNL1       -0.0023
      3 C          63.4768   88.6296   12.5211 C.ar    1  UNL1        0.0188
      4 C          63.7554   89.9686   11.9051 C.ar    1  UNL1        0.0824
      5 C          63.2151   90.2952   10.5444 C.ar    1  UNL1        0.0188
      6 C          62.3962   89.2827    9.7997 C.ar    1  UNL1       -0.0023
      7 N          64.5743   90.9810   12.6498 N.ar    1  UNL1       -0.2341
      8 N          65.0274   90.8722   14.0755 N.ar    1  UNL1       -0.1617
      9 C          65.8169   92.1040   14.4062 C.ar    1  UNL1        0.1696
     10 C          65.8517   92.9741   13.1849 C.ar    1  UNL1        0.0148
     11 C          65.0837   92.2801   12.0993 C.ar    1  UNL1        0.0579
     12 C          64.9474   92.9207   10.7499 C.3     1  UNL1        0.0456
     13 C          65.5791   94.2553   10.4860 C.3     1  UNL1        0.0066
     14 C          66.3472   94.9493   11.5716 C.3     1  UNL1        0.0052
     15 C          66.4834   94.3087   12.9210 C.3     1  UNL1        0.0291
     16 C          66.4590   92.4116   15.7265 C.3     1  UNL1        0.4362
     17 F          67.1011   92.7193   17.0468 F       1  UNL1       -0.1644
     18 F          67.8146   92.2552   15.1037 F       1  UNL1       -0.1644
     19 F          65.1035   92.5680   16.3493 F       1  UNL1       -0.1644
     20 C          61.2988   86.9313    9.6711 C.3     1  UNL1        0.0878
     21 C          60.1089   86.2637    9.0480 C.3     1  UNL1        0.0135
     22 C          59.9459   87.5727    9.7623 C.3     1  UNL1        0.0135
     23 O          63.0794   86.0355    8.0047 O.2     1  UNL1       -0.2746
     24 C          62.3674   85.9384    9.3214 C.2     1  UNL1        0.2285
     25 N          62.7238   84.8484   10.2883 N.am    1  UNL1       -0.2793
     26 C          63.7650   83.7894   10.0781 C.3     1  UNL1        0.0935
     27 C          63.7864   82.9125   11.2950 C.3     1  UNL1        0.0233
     28 C          62.7584   83.4297   12.2571 C.3     1  UNL1        0.0233
     29 C          62.1017   84.6262   11.6349 C.3     1  UNL1        0.0935
@<TRIPOS>BOND
     1    23    24    2
     2    24    25   am
     3    25    26    1
     4    26    27    1
     5    27    28    1
     6    28    29    1
     7    24    20    1
     8    20     1    1
     9     1     2   ar
    10     2     3   ar
    11     3     4   ar
    12     4     7    1
    13     7     8   ar
    14     8     9   ar
    15     9    16    1
    16    16    17    1
    17    16    18    1
    18    16    19    1
    19     9    10   ar
    20    10    11   ar
    21    11    12    1
    22    12    13    1
    23    13    14    1
    24    14    15    1
    25     4     5   ar
    26     5     6   ar
    27    20    21    1
    28    21    22    1
    29    29    25    1
    30    22    20    1
    31     6     1   ar
    32    11     7   ar
    33    15    10    1
@<TRIPOS>MOLECULE
*****
 29 33 0 0 0
SMALL
GASTEIGER

@<TRIPOS>ATOM
      1 C          65.1555   92.3711   12.4988 C.ar    1  UNL1       -0.0145
      2 C          64.6515   91.1929   13.2783 C.ar    1  UNL1       -0.0023
      3 C          63.7159   90.2126   12.6350 C.ar    1  UNL1        0.0188
      4 C          63.2844   90.4105   11.2122 C.ar    1  UNL1        0.0824
      5 C          63.7886   91.5888   10.4326 C.ar    1  UNL1        0.0188
      6 C          64.7241   92.5690   11.0759 C.ar    1  UNL1       -0.0023
      7 N          62.3489   89.4303   10.5688 N.ar    1  UNL1       -0.2341
      8 N          61.3167   89.7492    9.5282 N.ar    1  UNL1       -0.1617
      9 C          60.6112   88.4750    9.1695 C.ar    1  UNL1        0.1696
     10 C          61.2074   87.3686    9.9883 C.ar    1  UNL1        0.0148
     11 C          62.2813   87.9590   10.8532 C.ar    1  UNL1        0.0579
     12 C          63.0590   87.0807   11.7880 C.3     1  UNL1        0.0456
     13 C          62.7626   85.6119   11.8578 C.3     1  UNL1        0.0066
     14 C          61.6887   85.0215   10.9929 C.3     1  UNL1        0.0052
     15 C          60.9110   85.8998   10.0582 C.3     1  UNL1        0.0291
     16 C          59.5040   88.3322    8.1677 C.3     1  UNL1        0.4362
     17 F          58.3967   88.1895    7.1658 F       1  UNL1       -0.1644
     18 F          60.1383   89.3912    7.3156 F       1  UNL1       -0.1644
     19 F          58.8696   87.2732    9.0197 F       1  UNL1       -0.1644
     20 C          66.0911   93.3513   13.1421 C.3     1  UNL1        0.0878
     21 C          66.9274   94.0211   14.1919 C.3     1  UNL1        0.0135
     22 C          66.1303   92.7978   14.5357 C.3     1  UNL1        0.0135
     23 O          65.8689   95.6566   11.9647 O.2     1  UNL1       -0.2746
     24 C          66.3768   94.2453   11.9720 C.2     1  UNL1        0.2285
     25 N          67.1705   93.7278   10.8091 N.am    1  UNL1       -0.2793
     26 C          67.5331   94.5004    9.5756 C.3     1  UNL1        0.0935
     27 C          68.3276   93.5970    8.6797 C.3     1  UNL1        0.0233
     28 C          68.4559   92.2661    9.3594 C.3     1  UNL1        0.0233
     29 C          67.7408   92.3469   10.6755 C.3     1  UNL1        0.0935
@<TRIPOS>BOND
     1    23    24    2
     2    24    25   am
     3    25    26    1
     4    26    27    1
     5    27    28    1
     6    28    29    1
     7    24    20    1
     8    20     1    1
     9     1     2   ar
    10     2     3   ar
    11     3     4   ar
    12     4     7    1
    13     7     8   ar
    14     8     9   ar
    15     9    16    1
    16    16    17    1
    17    16    18    1
    18    16    19    1
    19     9    10   ar
    20    10    11   ar
    21    11    12    1
    22    12    13    1
    23    13    14    1
    24    14    15    1
    25     4     5   ar
    26     5     6   ar
    27    20    21    1
    28    21    22    1
    29    29    25    1
    30    22    20    1
    31     6     1   ar
    32    11     7   ar
    33    15    10    1
@<TRIPOS>MOLECULE
*****
 29 33 0 0 0
SMALL
GASTEIGER

@<TRIPOS>ATOM
      1 C          65.3677   92.1736   12.9916 C.ar    1  UNL1       -0.0145
      2 C          65.2785   90.9909   13.9099 C.ar    1  UNL1       -0.0023
      3 C          64.5076   89.7737   13.4923 C.ar    1  UNL1        0.0188
      4 C          63.8261   89.7392   12.1567 C.ar    1  UNL1        0.0824
      5 C          63.9153   90.9220   11.2384 C.ar    1  UNL1        0.0188
      6 C          64.6862   92.1392   11.6559 C.ar    1  UNL1       -0.0023
      7 N          63.0552   88.5220   11.7391 N.ar    1  UNL1       -0.2341
      8 N          63.2711   87.1259   12.2432 N.ar    1  UNL1       -0.1617
      9 C          62.2825   86.2283   11.5598 C.ar    1  UNL1        0.1696
     10 C          61.4556   87.0698   10.6334 C.ar    1  UNL1        0.0148
     11 C          61.9332   88.4874   10.7442 C.ar    1  UNL1        0.0579
     12 C          61.2848   89.5635    9.9249 C.3     1  UNL1        0.0456
     13 C          60.1587   89.2220    8.9947 C.3     1  UNL1        0.0066
     14 C          59.6810   87.8044    8.8839 C.3     1  UNL1        0.0052
     15 C          60.3295   86.7283    9.7032 C.3     1  UNL1        0.0291
     16 C          62.1448   84.7490   11.7666 C.3     1  UNL1        0.4362
     17 F          62.0071   83.2697   11.9734 F       1  UNL1       -0.1644
     18 F          61.8803   84.9775   13.2253 F       1  UNL1       -0.1644
     19 F          62.4093   84.5206   10.3079 F       1  UNL1       -0.1644
     20 C          66.1386   93.3908   13.4092 C.3     1  UNL1        0.0878
     21 C          66.8665   94.3660   14.2861 C.3     1  UNL1        0.0135
     22 C          66.2828   93.1169   14.8769 C.3     1  UNL1        0.0135
     23 O          65.5533   95.3889   11.8552 O.2     1  UNL1       -0.2746
     24 C          66.2621   94.0873   12.0865 C.2     1  UNL1        0.2285
     25 N          67.0944   93.4822   10.9951 N.am    1  UNL1       -0.2793
     26 C          67.3102   94.0600    9.6277 C.3     1  UNL1        0.0935
     27 C          68.2061   93.1280    8.8670 C.3     1  UNL1        0.0233
     28 C          68.5440   91.9744    9.7641 C.3     1  UNL1        0.0233
     29 C          67.8569   92.1933   11.0794 C.3     1  UNL1        0.0935
@<TRIPOS>BOND
     1    23    24    2
     2    24    25   am
     3    25    26    1
     4    26    27    1
     5    27    28    1
     6    28    29    1
     7    24    20    1
     8    20     1    1
     9     1     2   ar
    10     2     3   ar
    11     3     4   ar
    12     4     7    1
    13     7     8   ar
    14     8     9   ar
    15     9    16    1
    16    16    17    1
    17    16    18    1
    18    16    19    1
    19     9    10   ar
    20    10    11   ar
    21    11    12    1
    22    12    13    1
    23    13    14    1
    24    14    15    1
    25     4     5   ar
    26     5     6   ar
    27    20    21    1
    28    21    22    1
    29    29    25    1
    30    22    20    1
    31     6     1   ar
    32    11     7   ar
    33    15    10    1
@<TRIPOS>MOLECULE
*****
 29 33 0 0 0
SMALL
GASTEIGER

@<TRIPOS>ATOM
      1 C          62.0696   88.5535   10.6325 C.ar    1  UNL1       -0.0145
      2 C          62.7279   88.2557   11.9471 C.ar    1  UNL1       -0.0023
      3 C          63.6294   89.2728   12.5818 C.ar    1  UNL1        0.0188
      4 C          63.8726   90.5876   11.9022 C.ar    1  UNL1        0.0824
      5 C          63.2143   90.8853   10.5875 C.ar    1  UNL1        0.0188
      6 C          62.3128   89.8683    9.9528 C.ar    1  UNL1       -0.0023
      7 N          64.7741   91.6046   12.5369 N.ar    1  UNL1       -0.2341
      8 N          65.3848   91.5106   13.9037 N.ar    1  UNL1       -0.1617
      9 C          66.2112   92.7422   14.1278 C.ar    1  UNL1        0.1696
     10 C          66.1113   93.5974   12.8995 C.ar    1  UNL1        0.0148
     11 C          65.2231   92.8943   11.9163 C.ar    1  UNL1        0.0579
     12 C          64.9379   93.5193   10.5829 C.3     1  UNL1        0.0456
     13 C          65.5409   94.8473   10.2327 C.3     1  UNL1        0.0066
     14 C          66.4291   95.5503   11.2159 C.3     1  UNL1        0.0052
     15 C          66.7143   94.9254   12.5493 C.3     1  UNL1        0.0291
     16 C          66.9993   93.0624   15.3633 C.3     1  UNL1        0.4362
     17 F          67.7873   93.3826   16.5988 F       1  UNL1       -0.1644
     18 F          65.7493   92.9627   16.1864 F       1  UNL1       -0.1644
     19 F          68.2492   93.1621   14.5402 F       1  UNL1       -0.1644
     20 C          61.1682   87.5364    9.9978 C.3     1  UNL1        0.0878
     21 C          60.1641   86.9317    9.0617 C.3     1  UNL1        0.0135
     22 C          60.5598   88.3706    8.9097 C.3     1  UNL1        0.0135
     23 O          60.8394   86.2399   12.2251 O.2     1  UNL1       -0.2746
     24 C          61.4634   86.3490   10.8654 C.2     1  UNL1        0.2285
     25 N          62.3828   85.2707   10.3733 N.am    1  UNL1       -0.2793
     26 C          62.7695   84.0313   11.1245 C.3     1  UNL1        0.0935
     27 C          63.7025   83.2371   10.2592 C.3     1  UNL1        0.0233
     28 C          63.8923   83.9855    8.9733 C.3     1  UNL1        0.0233
     29 C          63.0766   85.2424    9.0438 C.3     1  UNL1        0.0935
@<TRIPOS>BOND
     1    23    24    2
     2    24    25   am
     3    25    26    1
     4    26    27    1
     5    27    28    1
     6    28    29    1
     7    24    20    1
     8    20     1    1
     9     1     2   ar
    10     2     3   ar
    11     3     4   ar
    12     4     7    1
    13     7     8   ar
    14     8     9   ar
    15     9    16    1
    16    16    17    1
    17    16    18    1
    18    16    19    1
    19     9    10   ar
    20    10    11   ar
    21    11    12    1
    22    12    13    1
    23    13    14    1
    24    14    15    1
    25     4     5   ar
    26     5     6   ar
    27    20    21    1
    28    21    22    1
    29    29    25    1
    30    22    20    1
    31     6     1   ar
    32    11     7   ar
    33    15    10    1
@<TRIPOS>MOLECULE
*****
 29 33 0 0 0
SMALL
GASTEIGER

@<TRIPOS>ATOM
      1 C          64.1513   90.3920   14.4674 C.ar    1  UNL1       -0.0145
      2 C          64.5121   88.9696   14.7781 C.ar    1  UNL1       -0.0023
      3 C          64.0935   87.8694   13.8484 C.ar    1  UNL1        0.0188
      4 C          63.3141   88.1916   12.6080 C.ar    1  UNL1        0.0824
      5 C          62.9533   89.6140   12.2972 C.ar    1  UNL1        0.0188
      6 C          63.3719   90.7142   13.2269 C.ar    1  UNL1       -0.0023
      7 N          62.8956   87.0914   11.6782 N.ar    1  UNL1       -0.2341
      8 N          62.3677   87.2673   10.2853 N.ar    1  UNL1       -0.1617
      9 C          62.0773   85.9067    9.7244 C.ar    1  UNL1        0.1696
     10 C          62.4256   84.8899   10.7708 C.ar    1  UNL1        0.0148
     11 C          62.9314   85.6221   11.9783 C.ar    1  UNL1        0.0579
     12 C          63.3591   84.8564   13.1951 C.3     1  UNL1        0.0456
     13 C          63.2811   83.3585   13.2044 C.3     1  UNL1        0.0066
     14 C          62.7754   82.6263   11.9968 C.3     1  UNL1        0.0052
     15 C          62.3476   83.3920   10.7801 C.3     1  UNL1        0.0291
     16 C          61.5339   85.6142    8.3573 C.3     1  UNL1        0.4362
     17 F          60.9904   85.3217    6.9901 F       1  UNL1       -0.1644
     18 F          60.1567   85.9791    8.8266 F       1  UNL1       -0.1644
     19 F          62.9110   85.2494    7.8880 F       1  UNL1       -0.1644
     20 C          64.5699   91.4922   15.3971 C.3     1  UNL1        0.0878
     21 C          64.6400   92.3479   16.6271 C.3     1  UNL1        0.0135
     22 C          63.7119   91.1702   16.5846 C.3     1  UNL1        0.0135
     23 O          65.1748   92.6949   13.1750 O.2     1  UNL1       -0.2746
     24 C          65.5732   92.1963   14.5325 C.2     1  UNL1        0.2285
     25 N          66.9750   92.4017   15.0253 N.am    1  UNL1       -0.2793
     26 C          68.0814   93.0842   14.2771 C.3     1  UNL1        0.0935
     27 C          69.3067   93.0649   15.1422 C.3     1  UNL1        0.0233
     28 C          68.9574   92.3706   16.4251 C.3     1  UNL1        0.0233
     29 C          67.5164   91.9606   16.3529 C.3     1  UNL1        0.0935
@<TRIPOS>BOND
     1    23    24    2
     2    24    25   am
     3    25    26    1
     4    26    27    1
     5    27    28    1
     6    28    29    1
     7    24    20    1
     8    20     1    1
     9     1     2   ar
    10     2     3   ar
    11     3     4   ar
    12     4     7    1
    13     7     8   ar
    14     8     9   ar
    15     9    16    1
    16    16    17    1
    17    16    18    1
    18    16    19    1
    19     9    10   ar
    20    10    11   ar
    21    11    12    1
    22    12    13    1
    23    13    14    1
    24    14    15    1
    25     4     5   ar
    26     5     6   ar
    27    20    21    1
    28    21    22    1
    29    29    25    1
    30    22    20    1
    31     6     1   ar
    32    11     7   ar
    33    15    10    1
@<TRIPOS>MOLECULE
*****
 29 33 0 0 0
SMALL
GASTEIGER

@<TRIPOS>ATOM
      1 C          64.1437   90.2347   14.5360 C.ar    1  UNL1       -0.0145
      2 C          64.4962   88.8356   14.9458 C.ar    1  UNL1       -0.0023
      3 C          64.1229   87.6797   14.0657 C.ar    1  UNL1        0.0188
      4 C          63.3970   87.9229   12.7758 C.ar    1  UNL1        0.0824
      5 C          63.0444   89.3222   12.3660 C.ar    1  UNL1        0.0188
      6 C          63.4178   90.4781   13.2461 C.ar    1  UNL1       -0.0023
      7 N          63.0237   86.7670   11.8957 N.ar    1  UNL1       -0.2341
      8 N          63.4423   85.3398   12.0899 N.ar    1  UNL1       -0.1617
      9 C          62.8435   84.5262   10.9811 C.ar    1  UNL1        0.1696
     10 C          62.0548   85.4506   10.1016 C.ar    1  UNL1        0.0148
     11 C          62.1662   86.8355   10.6669 C.ar    1  UNL1        0.0579
     12 C          61.4723   87.9801    9.9897 C.3     1  UNL1        0.0456
     13 C          60.6672   87.7396    8.7472 C.3     1  UNL1        0.0066
     14 C          60.5558   86.3547    8.1819 C.3     1  UNL1        0.0052
     15 C          61.2496   85.2102    8.8591 C.3     1  UNL1        0.0291
     16 C          63.0050   83.0478   10.7859 C.3     1  UNL1        0.4362
     17 F          63.1666   81.5693   10.5907 F       1  UNL1       -0.1644
     18 F          63.8836   83.3007    9.5968 F       1  UNL1       -0.1644
     19 F          62.1265   82.7948   11.9750 F       1  UNL1       -0.1644
     20 C          64.5170   91.3906   15.4161 C.3     1  UNL1        0.0878
     21 C          64.5516   92.3017   16.6072 C.3     1  UNL1        0.0135
     22 C          63.6714   91.0871   16.6172 C.3     1  UNL1        0.0135
     23 O          65.0608   92.5625   13.1620 O.2     1  UNL1       -0.2746
     24 C          65.4923   92.0955   14.5206 C.2     1  UNL1        0.2285
     25 N          66.8990   92.3334   14.9837 N.am    1  UNL1       -0.2793
     26 C          67.9798   93.0206   14.2030 C.3     1  UNL1        0.0935
     27 C          69.2207   93.0378   15.0456 C.3     1  UNL1        0.0233
     28 C          68.9068   92.3612   16.3470 C.3     1  UNL1        0.0233
     29 C          67.4719   91.9259   16.3088 C.3     1  UNL1        0.0935
@<TRIPOS>BOND
     1    23    24    2
     2    24    25   am
     3    25    26    1
     4    26    27    1
     5    27    28    1
     6    28    29    1
     7    24    20    1
     8    20     1    1
     9     1     2   ar
    10     2     3   ar
    11     3     4   ar
    12     4     7    1
    13     7     8   ar
    14     8     9   ar
    15     9    16    1
    16    16    17    1
    17    16    18    1
    18    16    19    1
    19     9    10   ar
    20    10    11   ar
    21    11    12    1
    22    12    13    1
    23    13    14    1
    24    14    15    1
    25     4     5   ar
    26     5     6   ar
    27    20    21    1
    28    21    22    1
    29    29    25    1
    30    22    20    1
    31     6     1   ar
    32    11     7   ar
    33    15    10    1
@<TRIPOS>MOLECULE
*****
 29 33 0 0 0
SMALL
GASTEIGER

@<TRIPOS>ATOM
      1 C          62.7153   87.6811   11.9477 C.ar    1  UNL1       -0.0145
      2 C          63.5039   87.6285   13.2225 C.ar    1  UNL1       -0.0023
      3 C          64.3130   88.8158   13.6535 C.ar    1  UNL1        0.0188
      4 C          64.3335   90.0557   12.8097 C.ar    1  UNL1        0.0824
      5 C          63.5449   90.1083   11.5348 C.ar    1  UNL1        0.0188
      6 C          62.7358   88.9210   11.1038 C.ar    1  UNL1       -0.0023
      7 N          65.1426   91.2430   13.2407 N.ar    1  UNL1       -0.2341
      8 N          65.8544   91.3958   14.5522 N.ar    1  UNL1       -0.1617
      9 C          66.5336   92.7332   14.5579 C.ar    1  UNL1        0.1696
     10 C          66.2415   93.4070   13.2499 C.ar    1  UNL1        0.0148
     11 C          65.3818   92.4860   12.4359 C.ar    1  UNL1        0.0579
     12 C          64.9279   92.8981   11.0669 C.3     1  UNL1        0.0456
     13 C          65.3337   94.2313   10.5121 C.3     1  UNL1        0.0066
     14 C          66.1934   95.1523   11.3261 C.3     1  UNL1        0.0052
     15 C          66.6473   94.7401   12.6950 C.3     1  UNL1        0.0291
     16 C          67.3598   93.2977   15.6753 C.3     1  UNL1        0.4362
     17 F          68.1861   93.8623   16.7927 F       1  UNL1       -0.1644
     18 F          68.5037   93.5014   14.7266 F       1  UNL1       -0.1644
     19 F          66.2160   93.0941   16.6240 F       1  UNL1       -0.1644
     20 C          61.9063   86.4938   11.5167 C.3     1  UNL1        0.0878
     21 C          61.5135   85.0648   11.2850 C.3     1  UNL1        0.0135
     22 C          62.8239   85.3856   11.9407 C.3     1  UNL1        0.0135
     23 O          59.9154   88.1404   11.7905 O.2     1  UNL1       -0.2746
     24 C          60.7077   87.1897   10.9430 C.2     1  UNL1        0.2285
     25 N          60.3015   86.9348    9.5217 N.am    1  UNL1       -0.2793
     26 C          59.1328   87.5542    8.8143 C.3     1  UNL1        0.0935
     27 C          59.1017   87.0180    7.4137 C.3     1  UNL1        0.0233
     28 C          60.2510   86.0674    7.2555 C.3     1  UNL1        0.0233
     29 C          60.9926   86.0159    8.5584 C.3     1  UNL1        0.0935
@<TRIPOS>BOND
     1    23    24    2
     2    24    25   am
     3    25    26    1
     4    26    27    1
     5    27    28    1
     6    28    29    1
     7    24    20    1
     8    20     1    1
     9     1     2   ar
    10     2     3   ar
    11     3     4   ar
    12     4     7    1
    13     7     8   ar
    14     8     9   ar
    15     9    16    1
    16    16    17    1
    17    16    18    1
    18    16    19    1
    19     9    10   ar
    20    10    11   ar
    21    11    12    1
    22    12    13    1
    23    13    14    1
    24    14    15    1
    25     4     5   ar
    26     5     6   ar
    27    20    21    1
    28    21    22    1
    29    29    25    1
    30    22    20    1
    31     6     1   ar
    32    11     7   ar
    33    15    10    1
