@<TRIPOS>MOLECULE
*****
 45 51 0 0 0
SMALL
GASTEIGER

@<TRIPOS>ATOM
      1 C          62.7846   86.4566   12.3299 C.3     1  UNL1        0.1561
      2 C          63.4336   87.3863   13.3120 C.2     1  UNL1        0.2440
      3 O          63.9264   86.8620   14.6282 O.2     1  UNL1       -0.2731
      4 N          63.5898   88.8402   12.9779 N.am    1  UNL1       -0.2734
      5 C          64.1842   89.9871   13.7405 C.3     1  UNL1        0.0937
      6 C          64.0587   91.2202   12.8955 C.3     1  UNL1        0.0234
      7 C          63.3868   90.8353   11.6109 C.3     1  UNL1        0.0285
      8 C          63.0970   89.3644   11.6618 C.3     1  UNL1        0.1465
      9 C          62.4480   88.4347   10.6796 C.3     1  UNL1        0.2754
     10 O          62.5344   89.8563   10.2087 O.3     1  UNL1       -0.3478
     11 O          61.8693   88.6614    9.3145 O.3     1  UNL1       -0.2976
     12 C          61.3555   87.3476    8.8049 C.3     1  UNL1        0.2253
     13 C          61.6166   86.3089    9.8550 C.2     1  UNL1        0.2719
     14 O          61.2644   84.8538    9.7628 O.2     1  UNL1       -0.2704
     15 N          62.2918   86.9808   11.0137 N.am    1  UNL1       -0.2271
     16 H          62.9627   90.3973   10.8904 H       1  UNL1        0.2145
     17 N          60.9701   88.1465    7.5952 N.am    1  UNL1       -0.2787
     18 C          60.0936   89.3548    7.7425 C.2     1  UNL1        0.2293
     19 O          59.6025   89.7641    9.0994 O.2     1  UNL1       -0.2746
     20 H          61.2925   87.8778    6.7047 H       1  UNL1        0.1519
     21 C          59.7082   90.1537    6.5329 C.3     1  UNL1        0.1141
     22 C          60.7607   90.5976    5.5607 C.2     1  UNL1       -0.0192
     23 C          60.3753   91.3966    4.3511 C.2     1  UNL1       -0.0145
     24 C          61.4279   91.8405    3.3789 C.2     1  UNL1       -0.0160
     25 C          62.8657   91.4855    3.6163 C.2     1  UNL1       -0.0038
     26 C          63.9182   91.9294    2.6442 C.2     1  UNL1        0.0009
     27 C          63.5328   92.7283    1.4345 C.2     1  UNL1        0.0153
     28 C          62.0949   93.0833    1.1971 C.2     1  UNL1        0.0670
     29 N          61.2841   93.8273    0.1777 N.2     1  UNL1       -0.2430
     30 C          59.8463   93.7760    0.6019 C.2     1  UNL1        0.1078
     31 BR         58.6893   94.3921   -0.1273 Br      1  UNL1       -0.0287
     32 C          59.6045   92.9944    1.9318 C.2     1  UNL1       -0.0093
     33 C          61.0425   92.6394    2.1692 C.3     1  UNL1        0.0824
     34 C          58.5520   92.5505    2.9040 C.3     1  UNL1        0.0452
     35 C          58.9374   91.7516    4.1136 C.3     1  UNL1        0.0837
     36 N          57.8849   91.3076    5.0858 N.3     1  UNL1       -0.2681
     37 C          56.4469   91.6626    4.8484 C.3     1  UNL1        0.0899
     38 C          58.2703   90.5087    6.2954 C.3     1  UNL1        0.0859
     39 C          60.7611   86.2007    8.0423 C.3     1  UNL1        0.0516
     40 C          61.6559   85.1740    7.4137 C.3     1  UNL1        0.0047
     41 C          59.2720   86.0806    7.9084 C.3     1  UNL1        0.0047
     42 C          62.6285   85.0026   12.6640 C.3     1  UNL1        0.0294
     43 C          64.0827   83.4798   11.1420 C.3     1  UNL1        0.0001
     44 C          63.7863   84.0647   12.4910 C.3     1  UNL1        0.0021
     45 C          64.6476   83.7116   13.6673 C.3     1  UNL1        0.0001
@<TRIPOS>BOND
     1    43    44    1
     2    44    45    1
     3    44    42    1
     4     1    42    1
     5     1     2    1
     6     2     3    2
     7     2     4   am
     8     4     5    1
     9     5     6    1
    10     6     7    1
    11     8     7    1
    12     8     9    1
    13     9    10    1
    14     9    11    1
    15    11    12    1
    16    12    17    1
    17    17    18   am
    18    18    19    2
    19    21    18    1
    20    21    22    1
    21    22    23    2
    22    23    24    1
    23    24    25    2
    24    25    26    1
    25    26    27    2
    26    27    28    1
    27    28    29    2
    28    29    30    1
    29    30    31    1
    30    30    32    2
    31    32    33    1
    32    32    34    1
    33    35    34    1
    34    35    36    1
    35    36    37    1
    36    36    38    1
    37    12    39    1
    38    39    40    1
    39    39    41    1
    40    12    13    1
    41    13    14    2
    42    13    15   am
    43    15     1    1
    44     8     4    1
    45    15     9    1
    46    38    21    1
    47    35    23    1
    48    33    24    1
    49    33    28    1
    50    10    16    1
    51    17    20    1
@<TRIPOS>MOLECULE
*****
 45 51 0 0 0
SMALL
GASTEIGER

@<TRIPOS>ATOM
      1 C          62.8760   87.2358   12.7678 C.3     1  UNL1        0.1561
      2 C          63.6632   88.1929   13.6130 C.2     1  UNL1        0.2440
      3 O          64.1458   87.7732   14.9698 O.2     1  UNL1       -0.2731
      4 N          63.9676   89.5697   13.1014 N.am    1  UNL1       -0.2734
      5 C          64.7161   90.7216   13.7039 C.3     1  UNL1        0.0937
      6 C          64.6960   91.8532   12.7194 C.3     1  UNL1        0.0234
      7 C          63.9352   91.4006   11.5085 C.3     1  UNL1        0.0285
      8 C          63.4849   89.9893   11.7446 C.3     1  UNL1        0.1465
      9 C          62.6978   89.0322   10.8993 C.3     1  UNL1        0.2754
     10 O          62.9240   90.3691   10.2577 O.3     1  UNL1       -0.3478
     11 O          62.0947   89.1626    9.5322 O.3     1  UNL1       -0.2976
     12 C          61.4175   87.8664    9.1988 C.3     1  UNL1        0.2253
     13 C          61.6021   86.9349   10.3599 C.2     1  UNL1        0.2719
     14 O          61.0861   85.5296   10.4536 O.2     1  UNL1       -0.2704
     15 N          62.3934   87.6554   11.4109 N.am    1  UNL1       -0.2271
     16 H          63.4366   90.9331   10.8576 H       1  UNL1        0.2145
     17 N          61.0765   88.5570    7.9117 N.am    1  UNL1       -0.2787
     18 C          60.0912   89.6880    7.9056 C.2     1  UNL1        0.2293
     19 O          59.4470   90.1283    9.1866 O.2     1  UNL1       -0.2746
     20 H          61.4993   88.2680    7.0709 H       1  UNL1        0.1519
     21 C          59.7501   90.3786    6.6185 C.3     1  UNL1        0.1141
     22 C          60.8420   90.7912    5.6765 C.2     1  UNL1       -0.0192
     23 C          60.5009   91.4819    4.3894 C.2     1  UNL1       -0.0145
     24 C          61.5930   91.8945    3.4473 C.2     1  UNL1       -0.0160
     25 C          63.0260   91.6164    3.7924 C.2     1  UNL1       -0.0038
     26 C          64.1179   92.0290    2.8504 C.2     1  UNL1        0.0009
     27 C          63.7768   92.7197    1.5633 C.2     1  UNL1        0.0153
     28 C          62.3438   92.9977    1.2182 C.2     1  UNL1        0.0670
     29 N          61.5690   93.6306    0.1006 N.2     1  UNL1       -0.2430
     30 C          60.1112   93.5529    0.4452 C.2     1  UNL1        0.1078
     31 BR         58.9783   94.0660   -0.3935 Br      1  UNL1       -0.0287
     32 C          59.8188   92.8632    1.8151 C.2     1  UNL1       -0.0093
     33 C          61.2519   92.5851    2.1602 C.3     1  UNL1        0.0824
     34 C          58.7269   92.4506    2.7571 C.3     1  UNL1        0.0452
     35 C          59.0679   91.7599    4.0443 C.3     1  UNL1        0.0837
     36 N          57.9760   91.3474    4.9863 N.3     1  UNL1       -0.2681
     37 C          56.5429   91.6254    4.6412 C.3     1  UNL1        0.0899
     38 C          58.3171   90.6567    6.2734 C.3     1  UNL1        0.0859
     39 C          60.6690   86.7145    8.5963 C.3     1  UNL1        0.0516
     40 C          59.1738   86.7656    8.4889 C.3     1  UNL1        0.0047
     41 C          61.4158   85.5115    8.1013 C.3     1  UNL1        0.0047
     42 C          62.5716   85.8590   13.2794 C.3     1  UNL1        0.0294
     43 C          64.1271   84.0994   14.3906 C.3     1  UNL1        0.0001
     44 C          63.5964   84.7703   13.1584 C.3     1  UNL1        0.0021
     45 C          64.0904   84.3524   11.8051 C.3     1  UNL1        0.0001
@<TRIPOS>BOND
     1    43    44    1
     2    44    45    1
     3    44    42    1
     4     1    42    1
     5     1     2    1
     6     2     3    2
     7     2     4   am
     8     4     5    1
     9     5     6    1
    10     6     7    1
    11     8     7    1
    12     8     9    1
    13     9    10    1
    14     9    11    1
    15    11    12    1
    16    12    17    1
    17    17    18   am
    18    18    19    2
    19    21    18    1
    20    21    22    1
    21    22    23    2
    22    23    24    1
    23    24    25    2
    24    25    26    1
    25    26    27    2
    26    27    28    1
    27    28    29    2
    28    29    30    1
    29    30    31    1
    30    30    32    2
    31    32    33    1
    32    32    34    1
    33    35    34    1
    34    35    36    1
    35    36    37    1
    36    36    38    1
    37    12    39    1
    38    39    40    1
    39    39    41    1
    40    12    13    1
    41    13    14    2
    42    13    15   am
    43    15     1    1
    44     8     4    1
    45    15     9    1
    46    38    21    1
    47    35    23    1
    48    33    24    1
    49    33    28    1
    50    10    16    1
    51    17    20    1
