@<TRIPOS>MOLECULE
*****
 34 36 0 0 0
SMALL
GASTEIGER

@<TRIPOS>ATOM
      1 N          63.7122   86.1254   13.6809 N.am    1  UNL1       -0.2538
      2 C          62.7130   85.3797   12.8470 C.2     1  UNL1        0.2527
      3 O          61.8496   86.1210   11.8697 O.2     1  UNL1       -0.2696
      4 C          62.5771   83.8928   12.9903 C.ar    1  UNL1        0.0579
      5 C          61.9976   83.3101   14.2451 C.ar    1  UNL1        0.0068
      6 C          61.8617   81.8232   14.3884 C.ar    1  UNL1        0.0298
      7 C          62.3053   80.9189   13.2769 C.ar    1  UNL1        0.1401
      8 F          62.1694   79.4320   13.4202 F       1  UNL1       -0.2042
      9 C          62.8849   81.5016   12.0220 C.ar    1  UNL1        0.0336
     10 C          63.0208   82.9885   11.8787 C.ar    1  UNL1        0.0780
     11 C          63.6003   83.5712   10.6239 C.3     1  UNL1        0.4188
     12 F          64.1799   84.1539    9.3691 F       1  UNL1       -0.1659
     13 F          64.9832   83.2879   11.1311 F       1  UNL1       -0.1659
     14 F          62.2174   83.8545   10.1168 F       1  UNL1       -0.1659
     15 C          63.8481   87.6123   13.5376 C.ar    1  UNL1        0.0544
     16 C          64.5570   88.4060   14.5947 C.ar    1  UNL1        0.0180
     17 C          64.6929   89.8930   14.4514 C.ar    1  UNL1        0.0382
     18 C          64.1199   90.5862   13.2510 C.ar    1  UNL1        0.1391
     19 C          63.4110   89.7925   12.1938 C.ar    1  UNL1        0.0382
     20 C          63.2751   88.3056   12.3371 C.ar    1  UNL1        0.0180
     21 O          64.2558   92.0731   13.1076 O.3     1  UNL1       -0.4706
     22 C          65.6130   92.7101   13.1535 C.3     1  UNL1        0.2320
     23 C          66.1503   93.4186   11.9454 C.ar    1  UNL1        0.0212
     24 C          66.7336   92.6295   10.8109 C.ar    1  UNL1        0.0002
     25 C          67.2709   93.3379    9.6028 C.ar    1  UNL1        0.0112
     26 C          67.2248   94.8354    9.5293 C.ar    1  UNL1        0.0577
     27 CL         67.7621   95.5439    8.3212 Cl      1  UNL1       -0.0822
     28 C          66.6415   95.6245   10.6638 C.ar    1  UNL1        0.0112
     29 C          66.1043   94.9160   11.8719 C.ar    1  UNL1        0.0002
     30 C          64.5757   85.3841   14.6582 C.3     1  UNL1        0.1153
     31 N          62.8872   85.9184   16.5590 N.3     1  UNL1       -0.3197
     32 C          64.1415   85.2447   16.0872 C.3     1  UNL1        0.0873
     33 H          62.7457   85.7186   17.5492 H       1  UNL1        0.1189
     34 H          62.0918   85.5688   16.0246 H       1  UNL1        0.1189
@<TRIPOS>BOND
     1    31    32    1
     2    32    30    1
     3    30     1    1
     4     1     2   am
     5     2     3    2
     6     2     4    1
     7     4     5   ar
     8     5     6   ar
     9     6     7   ar
    10     7     8    1
    11     7     9   ar
    12     9    10   ar
    13    10    11    1
    14    11    12    1
    15    11    13    1
    16    11    14    1
    17     1    15    1
    18    15    16   ar
    19    16    17   ar
    20    17    18   ar
    21    18    21    1
    22    21    22    1
    23    22    23    1
    24    23    24   ar
    25    24    25   ar
    26    25    26   ar
    27    26    27    1
    28    26    28   ar
    29    28    29   ar
    30    18    19   ar
    31    19    20   ar
    32    10     4   ar
    33    20    15   ar
    34    29    23   ar
    35    31    33    1
    36    31    34    1
@<TRIPOS>MOLECULE
*****
 34 36 0 0 0
SMALL
GASTEIGER

@<TRIPOS>ATOM
      1 N          63.1315   86.4703   12.5790 N.am    1  UNL1       -0.2538
      2 C          63.9187   85.3563   13.2029 C.2     1  UNL1        0.2527
      3 O          65.0722   85.6693   14.1094 O.2     1  UNL1       -0.2696
      4 C          63.5526   83.9294   12.9204 C.ar    1  UNL1        0.0579
      5 C          63.8588   83.3276   11.5810 C.ar    1  UNL1        0.0068
      6 C          63.4927   81.9007   11.2985 C.ar    1  UNL1        0.0298
      7 C          62.8203   81.0755   12.3554 C.ar    1  UNL1        0.1401
      8 F          62.4542   79.6486   12.0729 F       1  UNL1       -0.2042
      9 C          62.5140   81.6773   13.6949 C.ar    1  UNL1        0.0336
     10 C          62.8802   83.1043   13.9774 C.ar    1  UNL1        0.0780
     11 C          62.5739   83.7061   15.3168 C.3     1  UNL1        0.4188
     12 F          62.2677   84.3079   16.6561 F       1  UNL1       -0.1659
     13 F          63.8900   83.2117   15.8398 F       1  UNL1       -0.1659
     14 F          61.2579   84.2005   14.7937 F       1  UNL1       -0.1659
     15 C          63.4976   87.8972   12.8615 C.ar    1  UNL1        0.0544
     16 C          63.1199   88.9750   11.8891 C.ar    1  UNL1        0.0180
     17 C          63.4860   90.4020   12.1716 C.ar    1  UNL1        0.0382
     18 C          64.2299   90.7511   13.4265 C.ar    1  UNL1        0.1391
     19 C          64.6076   89.6732   14.3989 C.ar    1  UNL1        0.0382
     20 C          64.2415   88.2463   14.1164 C.ar    1  UNL1        0.0180
     21 O          64.5960   92.1780   13.7090 O.3     1  UNL1       -0.4706
     22 C          66.0028   92.6492   13.4881 C.3     1  UNL1        0.2320
     23 C          66.3940   93.2514   12.1712 C.ar    1  UNL1        0.0212
     24 C          66.1321   94.7039   11.9034 C.ar    1  UNL1        0.0002
     25 C          66.5233   95.3062   10.5865 C.ar    1  UNL1        0.0112
     26 C          67.1765   94.4559    9.5374 C.ar    1  UNL1        0.0577
     27 CL         67.5677   95.0581    8.2205 Cl      1  UNL1       -0.0822
     28 C          67.4384   93.0034    9.8052 C.ar    1  UNL1        0.0112
     29 C          67.0471   92.4012   11.1221 C.ar    1  UNL1        0.0002
     30 C          61.9780   86.1573   11.6725 C.3     1  UNL1        0.1153
     31 N          61.6406   87.0483    9.2555 N.3     1  UNL1       -0.3197
     32 C          62.2003   86.0220   10.1952 C.3     1  UNL1        0.0873
     33 H          61.8855   86.8009    8.2967 H       1  UNL1        0.1189
     34 H          62.0302   87.9637    9.4805 H       1  UNL1        0.1189
@<TRIPOS>BOND
     1    31    32    1
     2    32    30    1
     3    30     1    1
     4     1     2   am
     5     2     3    2
     6     2     4    1
     7     4     5   ar
     8     5     6   ar
     9     6     7   ar
    10     7     8    1
    11     7     9   ar
    12     9    10   ar
    13    10    11    1
    14    11    12    1
    15    11    13    1
    16    11    14    1
    17     1    15    1
    18    15    16   ar
    19    16    17   ar
    20    17    18   ar
    21    18    21    1
    22    21    22    1
    23    22    23    1
    24    23    24   ar
    25    24    25   ar
    26    25    26   ar
    27    26    27    1
    28    26    28   ar
    29    28    29   ar
    30    18    19   ar
    31    19    20   ar
    32    10     4   ar
    33    20    15   ar
    34    29    23   ar
    35    31    33    1
    36    31    34    1
@<TRIPOS>MOLECULE
*****
 34 36 0 0 0
SMALL
GASTEIGER

@<TRIPOS>ATOM
      1 N          63.5957   85.7925   13.5994 N.am    1  UNL1       -0.2538
      2 C          62.6368   84.9730   12.7876 C.2     1  UNL1        0.2527
      3 O          61.7425   85.6399   11.7848 O.2     1  UNL1       -0.2696
      4 C          62.5721   83.4866   12.9786 C.ar    1  UNL1        0.0579
      5 C          61.8494   82.9132   14.1613 C.ar    1  UNL1        0.0068
      6 C          61.7847   81.4268   14.3523 C.ar    1  UNL1        0.0298
      7 C          62.4427   80.5139   13.3607 C.ar    1  UNL1        0.1401
      8 F          62.3781   79.0275   13.5517 F       1  UNL1       -0.2042
      9 C          63.1655   81.0873   12.1779 C.ar    1  UNL1        0.0336
     10 C          63.2302   82.5737   11.9869 C.ar    1  UNL1        0.0780
     11 C          63.9529   83.1471   10.8042 C.3     1  UNL1        0.4188
     12 F          64.6756   83.7206    9.6215 F       1  UNL1       -0.1659
     13 F          65.1734   83.3553   11.6509 F       1  UNL1       -0.1659
     14 F          62.7324   82.9390    9.9574 F       1  UNL1       -0.1659
     15 C          63.6604   87.2789   13.4084 C.ar    1  UNL1        0.0544
     16 C          63.0677   87.9037   12.1803 C.ar    1  UNL1        0.0180
     17 C          63.1324   89.3901   11.9893 C.ar    1  UNL1        0.0382
     18 C          63.7897   90.2516   13.0264 C.ar    1  UNL1        0.1391
     19 C          64.3825   89.6268   14.2546 C.ar    1  UNL1        0.0382
     20 C          64.3178   88.1404   14.4456 C.ar    1  UNL1        0.0180
     21 O          63.8544   91.7380   12.8354 O.3     1  UNL1       -0.4706
     22 C          65.1616   92.3956   12.5058 C.3     1  UNL1        0.2320
     23 C          66.2646   92.4232   13.5220 C.ar    1  UNL1        0.0212
     24 C          67.6505   91.9981   13.1364 C.ar    1  UNL1        0.0002
     25 C          68.7535   92.0257   14.1526 C.ar    1  UNL1        0.0112
     26 C          68.4705   92.4784   15.5545 C.ar    1  UNL1        0.0577
     27 CL         69.5735   92.5060   16.5707 Cl      1  UNL1       -0.0822
     28 C          67.0847   92.9035   15.9400 C.ar    1  UNL1        0.0112
     29 C          65.9817   92.8759   14.9238 C.ar    1  UNL1        0.0002
     30 C          64.4899   85.1256   14.6022 C.3     1  UNL1        0.1153
     31 N          62.7394   85.5802   16.4673 N.3     1  UNL1       -0.3197
     32 C          64.0744   85.0452   16.0413 C.3     1  UNL1        0.0873
     33 H          62.6232   85.4440   17.4715 H       1  UNL1        0.1189
     34 H          61.9999   85.0848   15.9692 H       1  UNL1        0.1189
@<TRIPOS>BOND
     1    31    32    1
     2    32    30    1
     3    30     1    1
     4     1     2   am
     5     2     3    2
     6     2     4    1
     7     4     5   ar
     8     5     6   ar
     9     6     7   ar
    10     7     8    1
    11     7     9   ar
    12     9    10   ar
    13    10    11    1
    14    11    12    1
    15    11    13    1
    16    11    14    1
    17     1    15    1
    18    15    16   ar
    19    16    17   ar
    20    17    18   ar
    21    18    21    1
    22    21    22    1
    23    22    23    1
    24    23    24   ar
    25    24    25   ar
    26    25    26   ar
    27    26    27    1
    28    26    28   ar
    29    28    29   ar
    30    18    19   ar
    31    19    20   ar
    32    10     4   ar
    33    20    15   ar
    34    29    23   ar
    35    31    33    1
    36    31    34    1
@<TRIPOS>MOLECULE
*****
 34 36 0 0 0
SMALL
GASTEIGER

@<TRIPOS>ATOM
      1 N          62.7681   86.1782   11.9934 N.am    1  UNL1       -0.2538
      2 C          63.5204   85.1936   12.8387 C.2     1  UNL1        0.2527
      3 O          64.5411   85.6781   13.8255 O.2     1  UNL1       -0.2696
      4 C          63.2522   83.7246   12.6973 C.ar    1  UNL1        0.0579
      5 C          63.4318   83.0540   11.3676 C.ar    1  UNL1        0.0068
      6 C          63.1635   81.5850   11.2262 C.ar    1  UNL1        0.0298
      7 C          62.7158   80.7865   12.4144 C.ar    1  UNL1        0.1401
      8 F          62.4476   79.3175   12.2730 F       1  UNL1       -0.2042
      9 C          62.5363   81.4571   13.7442 C.ar    1  UNL1        0.0336
     10 C          62.8045   82.9261   13.8856 C.ar    1  UNL1        0.0780
     11 C          62.6250   83.5967   15.2153 C.3     1  UNL1        0.4188
     12 F          62.4454   84.2673   16.5450 F       1  UNL1       -0.1659
     13 F          63.9911   83.1379   15.6311 F       1  UNL1       -0.1659
     14 F          61.2588   84.0555   14.7994 F       1  UNL1       -0.1659
     15 C          63.0363   87.6472   12.1349 C.ar    1  UNL1        0.0544
     16 C          63.7527   88.1656   13.3465 C.ar    1  UNL1        0.0180
     17 C          64.0209   89.6346   13.4879 C.ar    1  UNL1        0.0382
     18 C          63.5727   90.5853   12.4178 C.ar    1  UNL1        0.1391
     19 C          62.8563   90.0669   11.2061 C.ar    1  UNL1        0.0382
     20 C          62.5881   88.5979   11.0646 C.ar    1  UNL1        0.0180
     21 O          63.8410   92.0543   12.5592 O.3     1  UNL1       -0.4706
     22 C          65.2191   92.5923   12.3117 C.3     1  UNL1        0.2320
     23 C          66.2593   92.5147   13.3897 C.ar    1  UNL1        0.0212
     24 C          65.9058   92.8806   14.8008 C.ar    1  UNL1        0.0002
     25 C          66.9460   92.8029   15.8787 C.ar    1  UNL1        0.0112
     26 C          68.3397   92.3594   15.5455 C.ar    1  UNL1        0.0577
     27 CL         69.3799   92.2817   16.6235 Cl      1  UNL1       -0.0822
     28 C          68.6931   91.9935   14.1345 C.ar    1  UNL1        0.0112
     29 C          67.6529   92.0712   13.0565 C.ar    1  UNL1        0.0002
     30 C          61.7475   85.6937   11.0067 C.3     1  UNL1        0.1153
     31 N          62.9432   85.3488    8.7261 N.3     1  UNL1       -0.3197
     32 C          61.8922   86.0295    9.5520 C.3     1  UNL1        0.0873
     33 H          62.8996   85.6950    7.7677 H       1  UNL1        0.1189
     34 H          62.7805   84.3419    8.7316 H       1  UNL1        0.1189
@<TRIPOS>BOND
     1    31    32    1
     2    32    30    1
     3    30     1    1
     4     1     2   am
     5     2     3    2
     6     2     4    1
     7     4     5   ar
     8     5     6   ar
     9     6     7   ar
    10     7     8    1
    11     7     9   ar
    12     9    10   ar
    13    10    11    1
    14    11    12    1
    15    11    13    1
    16    11    14    1
    17     1    15    1
    18    15    16   ar
    19    16    17   ar
    20    17    18   ar
    21    18    21    1
    22    21    22    1
    23    22    23    1
    24    23    24   ar
    25    24    25   ar
    26    25    26   ar
    27    26    27    1
    28    26    28   ar
    29    28    29   ar
    30    18    19   ar
    31    19    20   ar
    32    10     4   ar
    33    20    15   ar
    34    29    23   ar
    35    31    33    1
    36    31    34    1
@<TRIPOS>MOLECULE
*****
 34 36 0 0 0
SMALL
GASTEIGER

@<TRIPOS>ATOM
      1 N          64.2435   90.5507   13.1494 N.am    1  UNL1       -0.2538
      2 C          65.0307   91.8063   12.9176 C.2     1  UNL1        0.2527
      3 O          64.7244   92.6760   11.7344 O.2     1  UNL1       -0.2696
      4 C          66.1241   92.1924   13.8691 C.ar    1  UNL1        0.0579
      5 C          65.8104   92.4260   15.3172 C.ar    1  UNL1        0.0068
      6 C          66.9039   92.8121   16.2687 C.ar    1  UNL1        0.0298
      7 C          68.3110   92.9645   15.7721 C.ar    1  UNL1        0.1401
      8 F          69.4045   93.3506   16.7236 F       1  UNL1       -0.2042
      9 C          68.6248   92.7309   14.3239 C.ar    1  UNL1        0.0336
     10 C          67.5314   92.3448   13.3725 C.ar    1  UNL1        0.0780
     11 C          67.8450   92.1112   11.9244 C.3     1  UNL1        0.4188
     12 F          68.1587   91.8776   10.4763 F       1  UNL1       -0.1659
     13 F          67.0854   93.3521   11.5596 F       1  UNL1       -0.1659
     14 F          68.6047   90.8703   12.2891 F       1  UNL1       -0.1659
     15 C          63.1501   90.1647   12.1979 C.ar    1  UNL1        0.0544
     16 C          61.7717   89.8786   12.7156 C.ar    1  UNL1        0.0180
     17 C          60.6782   89.4926   11.7642 C.ar    1  UNL1        0.0382
     18 C          60.9632   89.3925   10.2949 C.ar    1  UNL1        0.1391
     19 C          62.3416   89.6786    9.7771 C.ar    1  UNL1        0.0382
     20 C          63.4351   90.0646   10.7285 C.ar    1  UNL1        0.0180
     21 O          59.8697   89.0065    9.3434 O.3     1  UNL1       -0.4706
     22 C          59.7653   87.5921    8.8549 C.3     1  UNL1        0.2320
     23 C          60.8527   86.6078    9.1693 C.ar    1  UNL1        0.0212
     24 C          61.0784   86.1665   10.5851 C.ar    1  UNL1        0.0002
     25 C          62.1657   85.1822   10.8995 C.ar    1  UNL1        0.0112
     26 C          63.0273   84.6393    9.7982 C.ar    1  UNL1        0.0577
     27 CL         64.1147   83.6550   10.1126 Cl      1  UNL1       -0.0822
     28 C          62.8016   85.0806    8.3825 C.ar    1  UNL1        0.0112
     29 C          61.7143   86.0649    8.0681 C.ar    1  UNL1        0.0002
     30 C          64.5498   89.6811   14.3326 C.3     1  UNL1        0.1153
     31 N          63.3202   88.3383   16.1859 N.3     1  UNL1       -0.3197
     32 C          63.6058   89.6401   15.4976 C.3     1  UNL1        0.0873
     33 H          62.6623   88.4947   16.9495 H       1  UNL1        0.1189
     34 H          64.1880   87.9529   16.5582 H       1  UNL1        0.1189
@<TRIPOS>BOND
     1    31    32    1
     2    32    30    1
     3    30     1    1
     4     1     2   am
     5     2     3    2
     6     2     4    1
     7     4     5   ar
     8     5     6   ar
     9     6     7   ar
    10     7     8    1
    11     7     9   ar
    12     9    10   ar
    13    10    11    1
    14    11    12    1
    15    11    13    1
    16    11    14    1
    17     1    15    1
    18    15    16   ar
    19    16    17   ar
    20    17    18   ar
    21    18    21    1
    22    21    22    1
    23    22    23    1
    24    23    24   ar
    25    24    25   ar
    26    25    26   ar
    27    26    27    1
    28    26    28   ar
    29    28    29   ar
    30    18    19   ar
    31    19    20   ar
    32    10     4   ar
    33    20    15   ar
    34    29    23   ar
    35    31    33    1
    36    31    34    1
@<TRIPOS>MOLECULE
*****
 34 36 0 0 0
SMALL
GASTEIGER

@<TRIPOS>ATOM
      1 N          62.6549   87.4894   11.4906 N.am    1  UNL1       -0.2538
      2 C          62.6311   87.8576   10.0367 C.2     1  UNL1        0.2527
      3 O          63.0629   89.2269    9.6026 O.2     1  UNL1       -0.2696
      4 C          62.1756   86.8563    9.0169 C.ar    1  UNL1        0.0579
      5 C          63.1036   85.7661    8.5696 C.ar    1  UNL1        0.0068
      6 C          62.6481   84.7649    7.5498 C.ar    1  UNL1        0.0298
      7 C          61.2645   84.8539    6.9772 C.ar    1  UNL1        0.1401
      8 F          60.8090   83.8527    5.9574 F       1  UNL1       -0.2042
      9 C          60.3364   85.9442    7.4245 C.ar    1  UNL1        0.0336
     10 C          60.7919   86.9454    8.4444 C.ar    1  UNL1        0.0780
     11 C          59.8639   88.0356    8.8917 C.3     1  UNL1        0.4188
     12 F          58.9359   89.1259    9.3390 F       1  UNL1       -0.1659
     13 F          59.6090   87.2940   10.1703 F       1  UNL1       -0.1659
     14 F          60.1188   88.7772    7.6130 F       1  UNL1       -0.1659
     15 C          63.1104   88.4907   12.5105 C.ar    1  UNL1        0.0544
     16 C          64.0198   88.0654   13.6249 C.ar    1  UNL1        0.0180
     17 C          64.4753   89.0666   14.6448 C.ar    1  UNL1        0.0382
     18 C          64.0215   90.4931   14.5501 C.ar    1  UNL1        0.1391
     19 C          63.1120   90.9185   13.4356 C.ar    1  UNL1        0.0382
     20 C          62.6565   89.9173   12.4158 C.ar    1  UNL1        0.0180
     21 O          64.4770   91.4943   15.5700 O.3     1  UNL1       -0.4706
     22 C          65.7140   92.3061   15.3236 C.3     1  UNL1        0.2320
     23 C          66.3756   92.2753   13.9777 C.ar    1  UNL1        0.0212
     24 C          67.7307   91.6511   13.8223 C.ar    1  UNL1        0.0002
     25 C          68.3924   91.6202   12.4765 C.ar    1  UNL1        0.0112
     26 C          67.6989   92.2136   11.2860 C.ar    1  UNL1        0.0577
     27 CL         68.3605   92.1827    9.9402 Cl      1  UNL1       -0.0822
     28 C          66.3438   92.8377   11.4415 C.ar    1  UNL1        0.0112
     29 C          65.6822   92.8686   12.7873 C.ar    1  UNL1        0.0002
     30 C          62.2231   86.1201   11.9248 C.3     1  UNL1        0.1153
     31 N          63.0093   83.6712   11.5578 N.3     1  UNL1       -0.3197
     32 C          63.2444   85.0399   12.1248 C.3     1  UNL1        0.0873
     33 H          63.7991   83.0679   11.7873 H       1  UNL1        0.1189
     34 H          62.9133   83.7349   10.5444 H       1  UNL1        0.1189
@<TRIPOS>BOND
     1    31    32    1
     2    32    30    1
     3    30     1    1
     4     1     2   am
     5     2     3    2
     6     2     4    1
     7     4     5   ar
     8     5     6   ar
     9     6     7   ar
    10     7     8    1
    11     7     9   ar
    12     9    10   ar
    13    10    11    1
    14    11    12    1
    15    11    13    1
    16    11    14    1
    17     1    15    1
    18    15    16   ar
    19    16    17   ar
    20    17    18   ar
    21    18    21    1
    22    21    22    1
    23    22    23    1
    24    23    24   ar
    25    24    25   ar
    26    25    26   ar
    27    26    27    1
    28    26    28   ar
    29    28    29   ar
    30    18    19   ar
    31    19    20   ar
    32    10     4   ar
    33    20    15   ar
    34    29    23   ar
    35    31    33    1
    36    31    34    1
@<TRIPOS>MOLECULE
*****
 34 36 0 0 0
SMALL
GASTEIGER

@<TRIPOS>ATOM
      1 N          63.7448   86.1070   13.7035 N.am    1  UNL1       -0.2538
      2 C          62.7549   85.3769   12.8450 C.2     1  UNL1        0.2527
      3 O          61.8979   86.1369   11.8764 O.2     1  UNL1       -0.2696
      4 C          62.6219   83.8869   12.9551 C.ar    1  UNL1        0.0579
      5 C          62.8154   83.0250   11.7428 C.ar    1  UNL1        0.0068
      6 C          62.6824   81.5350   11.8529 C.ar    1  UNL1        0.0298
      7 C          62.3559   80.9068   13.1753 C.ar    1  UNL1        0.1401
      8 F          62.2229   79.4168   13.2854 F       1  UNL1       -0.2042
      9 C          62.1624   81.7687   14.3877 C.ar    1  UNL1        0.0336
     10 C          62.2954   83.2587   14.2776 C.ar    1  UNL1        0.0780
     11 C          62.1019   84.1206   15.4899 C.3     1  UNL1        0.4188
     12 F          61.9084   84.9824   16.7022 F       1  UNL1       -0.1659
     13 F          63.2565   83.4369   16.1602 F       1  UNL1       -0.1659
     14 F          60.9473   84.8043   14.8195 F       1  UNL1       -0.1659
     15 C          63.8777   87.5971   13.5934 C.ar    1  UNL1        0.0544
     16 C          63.3327   88.3120   12.3927 C.ar    1  UNL1        0.0180
     17 C          63.4657   89.8020   12.2826 C.ar    1  UNL1        0.0382
     18 C          64.1437   90.5771   13.3732 C.ar    1  UNL1        0.1391
     19 C          64.6888   89.8622   14.5740 C.ar    1  UNL1        0.0382
     20 C          64.5558   88.3721   14.6841 C.ar    1  UNL1        0.0180
     21 O          64.2767   92.0671   13.2631 O.3     1  UNL1       -0.4706
     22 C          65.6357   92.7019   13.2768 C.3     1  UNL1        0.2320
     23 C          66.1651   93.3675   12.0413 C.ar    1  UNL1        0.0212
     24 C          66.7546   92.5401   10.9376 C.ar    1  UNL1        0.0002
     25 C          67.2840   93.2057    9.7020 C.ar    1  UNL1        0.0112
     26 C          67.2240   94.6988    9.5701 C.ar    1  UNL1        0.0577
     27 CL         67.7535   95.3644    8.3346 Cl      1  UNL1       -0.0822
     28 C          66.6346   95.5261   10.6738 C.ar    1  UNL1        0.0112
     29 C          66.1051   94.8605   11.9094 C.ar    1  UNL1        0.0002
     30 C          64.6018   85.3471   14.6721 C.3     1  UNL1        0.1153
     31 N          67.1390   84.7996   14.5612 N.3     1  UNL1       -0.3197
     32 C          65.7250   84.4904   14.1677 C.3     1  UNL1        0.0873
     33 H          67.7676   84.1210   14.1313 H       1  UNL1        0.1189
     34 H          67.2280   84.7502   15.5761 H       1  UNL1        0.1189
@<TRIPOS>BOND
     1    31    32    1
     2    32    30    1
     3    30     1    1
     4     1     2   am
     5     2     3    2
     6     2     4    1
     7     4     5   ar
     8     5     6   ar
     9     6     7   ar
    10     7     8    1
    11     7     9   ar
    12     9    10   ar
    13    10    11    1
    14    11    12    1
    15    11    13    1
    16    11    14    1
    17     1    15    1
    18    15    16   ar
    19    16    17   ar
    20    17    18   ar
    21    18    21    1
    22    21    22    1
    23    22    23    1
    24    23    24   ar
    25    24    25   ar
    26    25    26   ar
    27    26    27    1
    28    26    28   ar
    29    28    29   ar
    30    18    19   ar
    31    19    20   ar
    32    10     4   ar
    33    20    15   ar
    34    29    23   ar
    35    31    33    1
    36    31    34    1
@<TRIPOS>MOLECULE
*****
 34 36 0 0 0
SMALL
GASTEIGER

@<TRIPOS>ATOM
      1 N          72.1995   74.0616   14.1349 N.am    1  UNL1       -0.2538
      2 C          71.0957   73.4024   14.9075 C.2     1  UNL1        0.2527
      3 O          69.8591   74.1762   15.2572 O.2     1  UNL1       -0.2696
      4 C          71.2284   71.9694   15.3306 C.ar    1  UNL1        0.0579
      5 C          70.9260   70.8690   14.3572 C.ar    1  UNL1        0.0068
      6 C          71.0587   69.4360   14.7802 C.ar    1  UNL1        0.0298
      7 C          71.4938   69.1035   16.1766 C.ar    1  UNL1        0.1401
      8 F          71.6265   67.6705   16.5996 F       1  UNL1       -0.2042
      9 C          71.7962   70.2039   17.1501 C.ar    1  UNL1        0.0336
     10 C          71.6635   71.6369   16.7271 C.ar    1  UNL1        0.0780
     11 C          71.9659   72.7373   17.7005 C.3     1  UNL1        0.4188
     12 F          72.2683   73.8378   18.6739 F       1  UNL1       -0.1659
     13 F          73.3812   72.7858   17.2061 F       1  UNL1       -0.1659
     14 F          70.5506   72.6889   18.1949 F       1  UNL1       -0.1659
     15 C          72.0668   75.4946   13.7119 C.ar    1  UNL1        0.0544
     16 C          72.4942   76.5931   14.6395 C.ar    1  UNL1        0.0180
     17 C          72.3615   78.0261   14.2165 C.ar    1  UNL1        0.0382
     18 C          71.8014   78.3606   12.8659 C.ar    1  UNL1        0.1391
     19 C          71.3739   77.2621   11.9382 C.ar    1  UNL1        0.0382
     20 C          71.5066   75.8291   12.3612 C.ar    1  UNL1        0.0180
     21 O          71.6687   79.7936   12.4429 O.3     1  UNL1       -0.4706
     22 C          72.7451   80.4350   11.6184 C.3     1  UNL1        0.2320
     23 C          72.4744   80.8087   10.1911 C.ar    1  UNL1        0.0212
     24 C          72.2921   82.2492    9.8147 C.ar    1  UNL1        0.0002
     25 C          72.0213   82.6230    8.3875 C.ar    1  UNL1        0.0112
     26 C          71.9330   81.5561    7.3366 C.ar    1  UNL1        0.0577
     27 CL         71.6622   81.9299    5.9094 Cl      1  UNL1       -0.0822
     28 C          72.1153   80.1157    7.7131 C.ar    1  UNL1        0.0112
     29 C          72.3861   79.7419    9.1403 C.ar    1  UNL1        0.0002
     30 C          73.4361   73.2879   13.7853 C.3     1  UNL1        0.1153
     31 N          72.4453   72.3987   11.5543 N.3     1  UNL1       -0.3197
     32 C          73.6328   72.7797   12.3878 C.3     1  UNL1        0.0873
     33 H          72.7613   72.0771   10.6393 H       1  UNL1        0.1189
     34 H          71.8370   73.2092   11.4384 H       1  UNL1        0.1189
@<TRIPOS>BOND
     1    31    32    1
     2    32    30    1
     3    30     1    1
     4     1     2   am
     5     2     3    2
     6     2     4    1
     7     4     5   ar
     8     5     6   ar
     9     6     7   ar
    10     7     8    1
    11     7     9   ar
    12     9    10   ar
    13    10    11    1
    14    11    12    1
    15    11    13    1
    16    11    14    1
    17     1    15    1
    18    15    16   ar
    19    16    17   ar
    20    17    18   ar
    21    18    21    1
    22    21    22    1
    23    22    23    1
    24    23    24   ar
    25    24    25   ar
    26    25    26   ar
    27    26    27    1
    28    26    28   ar
    29    28    29   ar
    30    18    19   ar
    31    19    20   ar
    32    10     4   ar
    33    20    15   ar
    34    29    23   ar
    35    31    33    1
    36    31    34    1
