@<TRIPOS>MOLECULE
*****
 36 39 0 0 0
SMALL
GASTEIGER

@<TRIPOS>ATOM
      1 C          63.8878   91.0053   11.7238 C.ar    1  UNL1        0.1550
      2 C          62.9975   90.9704   10.5172 C.ar    1  UNL1        0.0553
      3 C          62.1700   89.7525   10.2307 C.ar    1  UNL1        0.1753
      4 F          61.2796   89.7176    9.0241 F       1  UNL1       -0.2009
      5 C          62.2329   88.5697   11.1509 C.ar    1  UNL1        0.1681
      6 C          63.1232   88.6046   12.3576 C.ar    1  UNL1        0.0702
      7 C          63.9507   89.8225   12.6440 C.ar    1  UNL1        0.1620
      8 F          64.8411   89.8574   13.8507 F       1  UNL1       -0.2026
      9 O          64.3917   92.1000   13.4697 O.2     1  UNL1       -0.1498
     10 S          64.7154   92.2233   12.0102 S.O2    1  UNL1        0.0780
     11 O          65.0390   92.3465   10.5508 O.2     1  UNL1       -0.1498
     12 N          65.5429   93.4411   12.2966 N.pl3   1  UNL1       -0.1835
     13 H          65.7025   93.7201   13.2271 H       1  UNL1        0.1767
     14 C          66.1271   94.2339   11.1651 C.ar    1  UNL1        0.2361
     15 N          65.4793   95.5166   10.7350 N.ar    1  UNL1       -0.2087
     16 C          66.0636   96.3093    9.6036 C.ar    1  UNL1        0.1330
     17 C          67.2957   95.8194    8.9023 C.ar    1  UNL1        0.1784
     18 F          67.8800   96.6122    7.7709 F       1  UNL1       -0.2009
     19 C          67.9436   94.5368    9.3325 C.ar    1  UNL1        0.1330
     20 N          67.3593   93.7440   10.4639 N.ar    1  UNL1       -0.2087
     21 O          61.4053   87.3518   10.8645 O.3     1  UNL1       -0.4731
     22 C          61.5563   86.1255   11.7150 C.3     1  UNL1        0.2071
     23 C          62.5763   85.0856   11.3573 C.3     1  UNL1        0.0635
     24 C          62.7208   84.6352    9.9338 C.3     1  UNL1        0.0726
     25 N          63.7410   83.5952    9.5761 N.3     1  UNL1       -0.2973
     26 C          64.6166   83.0058   10.6418 C.3     1  UNL1        0.0689
     27 C          64.4721   83.4562   12.0653 C.3     1  UNL1        0.0216
     28 C          63.4520   84.4961   12.4230 C.3     1  UNL1        0.0286
     29 H          64.3615   84.0169    8.8851 H       1  UNL1        0.1232
     30 C          63.3076   84.9465   13.8465 C.ar    1  UNL1       -0.0222
     31 C          62.3047   84.2848   14.7444 C.ar    1  UNL1       -0.0034
     32 C          62.1602   84.7352   16.1679 C.ar    1  UNL1        0.0111
     33 C          63.0186   85.8474   16.6934 C.ar    1  UNL1        0.0577
     34 CL         62.8741   86.2978   18.1168 Cl      1  UNL1       -0.0822
     35 C          64.0215   86.5092   15.7954 C.ar    1  UNL1        0.0111
     36 C          64.1660   86.0587   14.3720 C.ar    1  UNL1       -0.0034
@<TRIPOS>BOND
     1     9    10    2
     2    10    11    2
     3    10    12    1
     4    12    14    1
     5    14    15   ar
     6    15    16   ar
     7    16    17   ar
     8    17    18    1
     9    17    19   ar
    10    19    20   ar
    11    10     1    1
    12     1     2   ar
    13     2     3   ar
    14     3     4    1
    15     3     5   ar
    16     5    21    1
    17    21    22    1
    18    23    22    1
    19    23    24    1
    20    24    25    1
    21    25    26    1
    22    26    27    1
    23    27    28    1
    24    28    30    1
    25    30    31   ar
    26    31    32   ar
    27    32    33   ar
    28    33    34    1
    29    33    35   ar
    30    35    36   ar
    31     5     6   ar
    32     6     7   ar
    33     7     8    1
    34    20    14   ar
    35     7     1   ar
    36    28    23    1
    37    36    30   ar
    38    12    13    1
    39    25    29    1
@<TRIPOS>MOLECULE
*****
 36 39 0 0 0
SMALL
GASTEIGER

@<TRIPOS>ATOM
      1 C          63.8226   90.7832   11.7355 C.ar    1  UNL1        0.1550
      2 C          62.9573   90.7731   10.5103 C.ar    1  UNL1        0.0553
      3 C          62.1355   89.5619   10.1824 C.ar    1  UNL1        0.1753
      4 F          61.2702   89.5519    8.9571 F       1  UNL1       -0.2009
      5 C          62.1790   88.3608   11.0797 C.ar    1  UNL1        0.1681
      6 C          63.0443   88.3708   12.3049 C.ar    1  UNL1        0.0702
      7 C          63.8661   89.5820   12.6328 C.ar    1  UNL1        0.1620
      8 F          64.7313   89.5921   13.8581 F       1  UNL1       -0.2026
      9 O          65.1823   92.0086   10.6632 O.2     1  UNL1       -0.1498
     10 S          64.6444   91.9945   12.0634 S.O2    1  UNL1        0.0780
     11 O          64.1065   91.9804   13.4635 O.2     1  UNL1       -0.1498
     12 N          65.4661   93.2058   12.3913 N.pl3   1  UNL1       -0.1835
     13 H          65.2871   94.0601   11.9359 H       1  UNL1        0.1767
     14 C          66.5607   93.1154   13.4130 C.ar    1  UNL1        0.2361
     15 N          67.7111   92.1771   13.1987 N.ar    1  UNL1       -0.2087
     16 C          68.8056   92.0868   14.2204 C.ar    1  UNL1        0.1330
     17 C          68.7496   92.9348   15.4565 C.ar    1  UNL1        0.1784
     18 F          69.8441   92.8444   16.4782 F       1  UNL1       -0.2009
     19 C          67.5991   93.8731   15.6708 C.ar    1  UNL1        0.1330
     20 N          66.5047   93.9634   14.6491 N.ar    1  UNL1       -0.2087
     21 O          61.3572   87.1494   10.7518 O.3     1  UNL1       -0.4731
     22 C          61.4943   85.9043   11.5769 C.3     1  UNL1        0.2071
     23 C          62.5491   84.8929   11.2386 C.3     1  UNL1        0.0635
     24 C          62.7039   84.4147    9.8254 C.3     1  UNL1        0.0726
     25 N          63.7587   83.4032    9.4871 N.3     1  UNL1       -0.2973
     26 C          64.6587   82.8700   10.5621 C.3     1  UNL1        0.0689
     27 C          64.5039   83.3483   11.9754 C.3     1  UNL1        0.0216
     28 C          63.4491   84.3597   12.3137 C.3     1  UNL1        0.0286
     29 H          64.3613   83.8302    8.7836 H       1  UNL1        0.1232
     30 C          63.2944   84.8379   13.7270 C.ar    1  UNL1       -0.0222
     31 C          64.1557   85.9537   14.2398 C.ar    1  UNL1       -0.0034
     32 C          64.0009   86.4319   15.6530 C.ar    1  UNL1        0.0111
     33 C          62.9848   85.7943   16.5535 C.ar    1  UNL1        0.0577
     34 CL         62.8300   86.2725   17.9668 Cl      1  UNL1       -0.0822
     35 C          62.1234   84.6784   16.0407 C.ar    1  UNL1        0.0111
     36 C          62.2782   84.2002   14.6274 C.ar    1  UNL1       -0.0034
@<TRIPOS>BOND
     1     9    10    2
     2    10    11    2
     3    10    12    1
     4    12    14    1
     5    14    15   ar
     6    15    16   ar
     7    16    17   ar
     8    17    18    1
     9    17    19   ar
    10    19    20   ar
    11    10     1    1
    12     1     2   ar
    13     2     3   ar
    14     3     4    1
    15     3     5   ar
    16     5    21    1
    17    21    22    1
    18    23    22    1
    19    23    24    1
    20    24    25    1
    21    25    26    1
    22    26    27    1
    23    27    28    1
    24    28    30    1
    25    30    31   ar
    26    31    32   ar
    27    32    33   ar
    28    33    34    1
    29    33    35   ar
    30    35    36   ar
    31     5     6   ar
    32     6     7   ar
    33     7     8    1
    34    20    14   ar
    35     7     1   ar
    36    28    23    1
    37    36    30   ar
    38    12    13    1
    39    25    29    1
@<TRIPOS>MOLECULE
*****
 36 39 0 0 0
SMALL
GASTEIGER

@<TRIPOS>ATOM
      1 C          63.4055   85.5422   15.3556 C.ar    1  UNL1        0.1550
      2 C          63.1712   86.3686   16.5853 C.ar    1  UNL1        0.0553
      3 C          63.4620   87.8400   16.5667 C.ar    1  UNL1        0.1753
      4 F          63.2277   88.6664   17.7964 F       1  UNL1       -0.2009
      5 C          63.9871   88.4850   15.3184 C.ar    1  UNL1        0.1681
      6 C          64.2214   87.6586   14.0887 C.ar    1  UNL1        0.0702
      7 C          63.9306   86.1872   14.1073 C.ar    1  UNL1        0.1620
      8 F          64.1649   85.3607   12.8776 F       1  UNL1       -0.2026
      9 O          61.6450   84.3602   15.2963 O.2     1  UNL1       -0.1498
     10 S          63.1147   84.0707   15.3742 S.O2    1  UNL1        0.0780
     11 O          64.5844   83.7813   15.4522 O.2     1  UNL1       -0.1498
     12 N          62.8239   82.5993   15.3929 N.pl3   1  UNL1       -0.1835
     13 H          62.6405   82.1446   16.2466 H       1  UNL1        0.1767
     14 C          62.8126   81.8207   14.1107 C.ar    1  UNL1        0.2361
     15 N          62.5535   80.3435   14.1327 N.ar    1  UNL1       -0.2087
     16 C          62.5422   79.5649   12.8506 C.ar    1  UNL1        0.1330
     17 C          62.7900   80.2637   11.5466 C.ar    1  UNL1        0.1784
     18 F          62.7786   79.4851   10.2645 F       1  UNL1       -0.2009
     19 C          63.0490   81.7409   11.5247 C.ar    1  UNL1        0.1330
     20 N          63.0604   82.5195   12.8068 N.ar    1  UNL1       -0.2087
     21 O          64.2779   89.9564   15.2997 O.3     1  UNL1       -0.4731
     22 C          63.6090   90.8404   14.2893 C.3     1  UNL1        0.2071
     23 C          64.4308   91.5588   13.2605 C.3     1  UNL1        0.0635
     24 C          65.5526   92.4570   13.6902 C.3     1  UNL1        0.0726
     25 N          66.3745   93.1754   12.6613 N.3     1  UNL1       -0.2973
     26 C          66.0744   92.9956   11.2027 C.3     1  UNL1        0.0689
     27 C          64.9526   92.0974   10.7729 C.3     1  UNL1        0.0216
     28 C          64.1308   91.3790   11.8017 C.3     1  UNL1        0.0286
     29 H          67.3418   92.8838   12.8011 H       1  UNL1        0.1232
     30 C          63.0090   90.4808   11.3720 C.ar    1  UNL1       -0.0222
     31 C          63.1514   88.9925   11.4930 C.ar    1  UNL1       -0.0034
     32 C          62.0296   88.0943   11.0632 C.ar    1  UNL1        0.0111
     33 C          60.7653   88.6844   10.5124 C.ar    1  UNL1        0.0577
     34 CL         59.6435   87.7861   10.0826 Cl      1  UNL1       -0.0822
     35 C          60.6229   90.1727   10.3913 C.ar    1  UNL1        0.0111
     36 C          61.7447   91.0709   10.8211 C.ar    1  UNL1       -0.0034
@<TRIPOS>BOND
     1     9    10    2
     2    10    11    2
     3    10    12    1
     4    12    14    1
     5    14    15   ar
     6    15    16   ar
     7    16    17   ar
     8    17    18    1
     9    17    19   ar
    10    19    20   ar
    11    10     1    1
    12     1     2   ar
    13     2     3   ar
    14     3     4    1
    15     3     5   ar
    16     5    21    1
    17    21    22    1
    18    23    22    1
    19    23    24    1
    20    24    25    1
    21    25    26    1
    22    26    27    1
    23    27    28    1
    24    28    30    1
    25    30    31   ar
    26    31    32   ar
    27    32    33   ar
    28    33    34    1
    29    33    35   ar
    30    35    36   ar
    31     5     6   ar
    32     6     7   ar
    33     7     8    1
    34    20    14   ar
    35     7     1   ar
    36    28    23    1
    37    36    30   ar
    38    12    13    1
    39    25    29    1
@<TRIPOS>MOLECULE
*****
 36 39 0 0 0
SMALL
GASTEIGER

@<TRIPOS>ATOM
      1 C          65.2394   91.7641   13.0628 C.ar    1  UNL1        0.1550
      2 C          64.1812   91.2446   12.1353 C.ar    1  UNL1        0.0553
      3 C          63.5240   89.9248   12.4113 C.ar    1  UNL1        0.1753
      4 F          62.4658   89.4054   11.4838 F       1  UNL1       -0.2009
      5 C          63.9251   89.1246   13.6149 C.ar    1  UNL1        0.1681
      6 C          64.9833   89.6440   14.5424 C.ar    1  UNL1        0.0702
      7 C          65.6404   90.9638   14.2664 C.ar    1  UNL1        0.1620
      8 F          66.6986   91.4833   15.1939 F       1  UNL1       -0.2026
      9 O          65.6482   93.5044   14.2050 O.2     1  UNL1       -0.1498
     10 S          65.8966   93.0840   12.7867 S.O2    1  UNL1        0.0780
     11 O          66.1450   92.6636   11.3685 O.2     1  UNL1       -0.1498
     12 N          66.5537   94.4038   12.5106 N.pl3   1  UNL1       -0.1835
     13 H          67.0263   94.8788   13.2319 H       1  UNL1        0.1767
     14 C          66.4909   94.9998   11.1355 C.ar    1  UNL1        0.2361
     15 N          67.5312   94.6436   10.1154 N.ar    1  UNL1       -0.2087
     16 C          67.4683   95.2396    8.7403 C.ar    1  UNL1        0.1330
     17 C          66.3650   96.1919    8.3854 C.ar    1  UNL1        0.1784
     18 F          66.3022   96.7879    7.0103 F       1  UNL1       -0.2009
     19 C          65.3247   96.5481    9.4055 C.ar    1  UNL1        0.1330
     20 N          65.3876   95.9520   10.7806 N.ar    1  UNL1       -0.2087
     21 O          63.2679   87.8047   13.8910 O.3     1  UNL1       -0.4731
     22 C          63.9770   86.5278   13.5496 C.3     1  UNL1        0.2071
     23 C          63.4614   85.2203   14.0736 C.3     1  UNL1        0.0635
     24 C          63.4755   84.9453   15.5481 C.3     1  UNL1        0.0726
     25 N          62.9598   83.6378   16.0721 N.3     1  UNL1       -0.2973
     26 C          62.4301   82.6054   15.1217 C.3     1  UNL1        0.0689
     27 C          62.4160   82.8804   13.6472 C.3     1  UNL1        0.0216
     28 C          62.9316   84.1878   13.1231 C.3     1  UNL1        0.0286
     29 H          62.2030   83.8579   16.7195 H       1  UNL1        0.1232
     30 C          62.9175   84.4629   11.6486 C.ar    1  UNL1       -0.0222
     31 C          62.0596   85.5638   11.0992 C.ar    1  UNL1       -0.0034
     32 C          62.0455   85.8388    9.6247 C.ar    1  UNL1        0.0111
     33 C          62.8893   85.0129    8.6996 C.ar    1  UNL1        0.0577
     34 CL         62.8752   85.2879    7.2251 Cl      1  UNL1       -0.0822
     35 C          63.7472   83.9119    9.2490 C.ar    1  UNL1        0.0111
     36 C          63.7613   83.6368   10.7235 C.ar    1  UNL1       -0.0034
@<TRIPOS>BOND
     1     9    10    2
     2    10    11    2
     3    10    12    1
     4    12    14    1
     5    14    15   ar
     6    15    16   ar
     7    16    17   ar
     8    17    18    1
     9    17    19   ar
    10    19    20   ar
    11    10     1    1
    12     1     2   ar
    13     2     3   ar
    14     3     4    1
    15     3     5   ar
    16     5    21    1
    17    21    22    1
    18    23    22    1
    19    23    24    1
    20    24    25    1
    21    25    26    1
    22    26    27    1
    23    27    28    1
    24    28    30    1
    25    30    31   ar
    26    31    32   ar
    27    32    33   ar
    28    33    34    1
    29    33    35   ar
    30    35    36   ar
    31     5     6   ar
    32     6     7   ar
    33     7     8    1
    34    20    14   ar
    35     7     1   ar
    36    28    23    1
    37    36    30   ar
    38    12    13    1
    39    25    29    1
@<TRIPOS>MOLECULE
*****
 36 39 0 0 0
SMALL
GASTEIGER

@<TRIPOS>ATOM
      1 C          63.8807   91.1617   11.8996 C.ar    1  UNL1        0.1550
      2 C          62.8817   91.3469   10.7960 C.ar    1  UNL1        0.0553
      3 C          61.7682   90.3577   10.6186 C.ar    1  UNL1        0.1753
      4 F          60.7692   90.5429    9.5151 F       1  UNL1       -0.2009
      5 C          61.6537   89.1833   11.5446 C.ar    1  UNL1        0.1681
      6 C          62.6526   88.9981   12.6481 C.ar    1  UNL1        0.0702
      7 C          63.7662   89.9873   12.8256 C.ar    1  UNL1        0.1620
      8 F          64.7651   89.8021   13.9291 F       1  UNL1       -0.2026
      9 O          65.2905   92.0810   10.6083 O.2     1  UNL1       -0.1498
     10 S          64.9942   92.1510   12.0770 S.O2    1  UNL1        0.0780
     11 O          64.6980   92.2209   13.5458 O.2     1  UNL1       -0.1498
     12 N          66.1077   93.1402   12.2545 N.pl3   1  UNL1       -0.1835
     13 H          66.5848   93.1954   13.1139 H       1  UNL1        0.1767
     14 C          66.4944   94.0453   11.1225 C.ar    1  UNL1        0.2361
     15 N          65.7455   95.3251   10.8962 N.ar    1  UNL1       -0.2087
     16 C          66.1321   96.2302    9.7642 C.ar    1  UNL1        0.1330
     17 C          67.2677   95.8555    8.8587 C.ar    1  UNL1        0.1784
     18 F          67.6544   96.7606    7.7267 F       1  UNL1       -0.2009
     19 C          68.0167   94.5757    9.0851 C.ar    1  UNL1        0.1330
     20 N          67.6300   93.6707   10.2170 N.ar    1  UNL1       -0.2087
     21 O          60.5401   88.1940   11.3672 O.3     1  UNL1       -0.4731
     22 C          60.8428   86.7260   11.3120 C.3     1  UNL1        0.2071
     23 C          61.4666   86.1345   10.0827 C.3     1  UNL1        0.0635
     24 C          61.0403   86.6065    8.7242 C.3     1  UNL1        0.0726
     25 N          61.6641   86.0150    7.4949 N.3     1  UNL1       -0.2973
     26 C          62.7141   84.9516    7.6242 C.3     1  UNL1        0.0689
     27 C          63.1404   84.4797    8.9827 C.3     1  UNL1        0.0216
     28 C          62.5166   85.0711   10.2120 C.3     1  UNL1        0.0286
     29 H          62.0882   86.7864    6.9796 H       1  UNL1        0.1232
     30 C          62.9429   84.5992   11.5705 C.ar    1  UNL1       -0.0222
     31 C          62.8595   83.1426   11.9188 C.ar    1  UNL1       -0.0034
     32 C          63.2857   82.6707   13.2773 C.ar    1  UNL1        0.0111
     33 C          63.7954   83.6554   14.2876 C.ar    1  UNL1        0.0577
     34 CL         64.2216   83.1834   15.6461 Cl      1  UNL1       -0.0822
     35 C          63.8788   85.1120   13.9393 C.ar    1  UNL1        0.0111
     36 C          63.4526   85.5840   12.5808 C.ar    1  UNL1       -0.0034
@<TRIPOS>BOND
     1     9    10    2
     2    10    11    2
     3    10    12    1
     4    12    14    1
     5    14    15   ar
     6    15    16   ar
     7    16    17   ar
     8    17    18    1
     9    17    19   ar
    10    19    20   ar
    11    10     1    1
    12     1     2   ar
    13     2     3   ar
    14     3     4    1
    15     3     5   ar
    16     5    21    1
    17    21    22    1
    18    23    22    1
    19    23    24    1
    20    24    25    1
    21    25    26    1
    22    26    27    1
    23    27    28    1
    24    28    30    1
    25    30    31   ar
    26    31    32   ar
    27    32    33   ar
    28    33    34    1
    29    33    35   ar
    30    35    36   ar
    31     5     6   ar
    32     6     7   ar
    33     7     8    1
    34    20    14   ar
    35     7     1   ar
    36    28    23    1
    37    36    30   ar
    38    12    13    1
    39    25    29    1
@<TRIPOS>MOLECULE
*****
 36 39 0 0 0
SMALL
GASTEIGER

@<TRIPOS>ATOM
      1 C          63.7411   86.2651   13.7463 C.ar    1  UNL1        0.1550
      2 C          63.2706   86.8322   12.4397 C.ar    1  UNL1        0.0553
      3 C          63.1559   88.3175   12.2647 C.ar    1  UNL1        0.1753
      4 F          62.6854   88.8846   10.9581 F       1  UNL1       -0.2009
      5 C          63.5117   89.2357   13.3962 C.ar    1  UNL1        0.1681
      6 C          63.9822   88.6686   14.7027 C.ar    1  UNL1        0.0702
      7 C          64.0969   87.1833   14.8777 C.ar    1  UNL1        0.1620
      8 F          64.5674   86.6162   16.1843 F       1  UNL1       -0.2026
      9 O          62.3619   84.6577   13.8650 O.2     1  UNL1       -0.1498
     10 S          63.8558   84.7797   13.9213 S.O2    1  UNL1        0.0780
     11 O          65.3498   84.9018   13.9775 O.2     1  UNL1       -0.1498
     12 N          63.9706   83.2944   14.0963 N.pl3   1  UNL1       -0.1835
     13 H          64.2374   82.9205   14.9671 H       1  UNL1        0.1767
     14 C          63.6788   82.3787   12.9445 C.ar    1  UNL1        0.2361
     15 N          63.0053   81.0605   13.1864 N.ar    1  UNL1       -0.2087
     16 C          62.7136   80.1449   12.0347 C.ar    1  UNL1        0.1330
     17 C          63.0954   80.5475   10.6411 C.ar    1  UNL1        0.1784
     18 F          62.8037   79.6318    9.4893 F       1  UNL1       -0.2009
     19 C          63.7690   81.8657   10.3992 C.ar    1  UNL1        0.1330
     20 N          64.0607   82.7813   11.5509 N.ar    1  UNL1       -0.2087
     21 O          63.3970   90.7211   13.2211 O.3     1  UNL1       -0.4731
     22 C          64.6015   91.5256   12.8314 C.3     1  UNL1        0.2071
     23 C          65.4998   92.0920   13.8906 C.3     1  UNL1        0.0635
     24 C          65.3202   91.6844   15.3230 C.3     1  UNL1        0.0726
     25 N          66.2186   92.2509   16.3823 N.3     1  UNL1       -0.2973
     26 C          67.2965   93.2250   16.0092 C.3     1  UNL1        0.0689
     27 C          67.4761   93.6326   14.5768 C.3     1  UNL1        0.0216
     28 C          66.5778   93.0661   13.5176 C.3     1  UNL1        0.0286
     29 H          66.6795   91.4596   16.8316 H       1  UNL1        0.1232
     30 C          66.7574   93.4738   12.0852 C.ar    1  UNL1       -0.0222
     31 C          67.4839   92.5701   11.1337 C.ar    1  UNL1       -0.0034
     32 C          67.6635   92.9777    9.7014 C.ar    1  UNL1        0.0111
     33 C          67.1165   94.2890    9.2206 C.ar    1  UNL1        0.0577
     34 CL         67.2961   94.6966    7.7882 Cl      1  UNL1       -0.0822
     35 C          66.3899   95.1928   10.1721 C.ar    1  UNL1        0.0111
     36 C          66.2103   94.7851   11.6044 C.ar    1  UNL1       -0.0034
@<TRIPOS>BOND
     1     9    10    2
     2    10    11    2
     3    10    12    1
     4    12    14    1
     5    14    15   ar
     6    15    16   ar
     7    16    17   ar
     8    17    18    1
     9    17    19   ar
    10    19    20   ar
    11    10     1    1
    12     1     2   ar
    13     2     3   ar
    14     3     4    1
    15     3     5   ar
    16     5    21    1
    17    21    22    1
    18    23    22    1
    19    23    24    1
    20    24    25    1
    21    25    26    1
    22    26    27    1
    23    27    28    1
    24    28    30    1
    25    30    31   ar
    26    31    32   ar
    27    32    33   ar
    28    33    34    1
    29    33    35   ar
    30    35    36   ar
    31     5     6   ar
    32     6     7   ar
    33     7     8    1
    34    20    14   ar
    35     7     1   ar
    36    28    23    1
    37    36    30   ar
    38    12    13    1
    39    25    29    1
@<TRIPOS>MOLECULE
*****
 36 39 0 0 0
SMALL
GASTEIGER

@<TRIPOS>ATOM
      1 C          63.6758   91.0407   11.7632 C.ar    1  UNL1        0.1550
      2 C          62.6553   91.2066   10.6765 C.ar    1  UNL1        0.0553
      3 C          61.5849   90.1728   10.4886 C.ar    1  UNL1        0.1753
      4 F          60.5643   90.3387    9.4019 F       1  UNL1       -0.2009
      5 C          61.5349   88.9730   11.3875 C.ar    1  UNL1        0.1681
      6 C          62.5554   88.8071   12.4743 C.ar    1  UNL1        0.0702
      7 C          63.6259   89.8409   12.6621 C.ar    1  UNL1        0.1620
      8 F          64.6464   89.6750   13.7489 F       1  UNL1       -0.2026
      9 O          64.4033   92.1650   13.4085 O.2     1  UNL1       -0.1498
     10 S          64.7463   92.0745   11.9511 S.O2    1  UNL1        0.0780
     11 O          65.0893   91.9841   10.4936 O.2     1  UNL1       -0.1498
     12 N          65.8168   93.1084   12.1388 N.pl3   1  UNL1       -0.1835
     13 H          65.8746   93.8745   11.5232 H       1  UNL1        0.1767
     14 C          66.7991   92.9750   13.2646 C.ar    1  UNL1        0.2361
     15 N          66.6754   93.8513   14.4757 N.ar    1  UNL1       -0.2087
     16 C          67.6577   93.7179   15.6014 C.ar    1  UNL1        0.1330
     17 C          68.7637   92.7082   15.5160 C.ar    1  UNL1        0.1784
     18 F          69.7461   92.5748   16.6417 F       1  UNL1       -0.2009
     19 C          68.8874   91.8319   14.3049 C.ar    1  UNL1        0.1330
     20 N          67.9051   91.9653   13.1792 N.ar    1  UNL1       -0.2087
     21 O          60.4644   87.9392   11.1997 O.3     1  UNL1       -0.4731
     22 C          60.8292   86.4859   11.1302 C.3     1  UNL1        0.2071
     23 C          61.4612   85.9299    9.8886 C.3     1  UNL1        0.0635
     24 C          60.9766   86.3697    8.5389 C.3     1  UNL1        0.0726
     25 N          61.6086   85.8137    7.2973 N.3     1  UNL1       -0.2973
     26 C          62.7251   84.8179    7.4055 C.3     1  UNL1        0.0689
     27 C          63.2097   84.3781    8.7552 C.3     1  UNL1        0.0216
     28 C          62.5778   84.9341    9.9968 C.3     1  UNL1        0.0286
     29 H          61.9725   86.6080    6.7710 H       1  UNL1        0.1232
     30 C          63.0623   84.4943   11.3465 C.ar    1  UNL1       -0.0222
     31 C          63.2095   85.4957   12.4535 C.ar    1  UNL1       -0.0034
     32 C          63.6940   85.0559   13.8032 C.ar    1  UNL1        0.0111
     33 C          64.0315   83.6147   14.0459 C.ar    1  UNL1        0.0577
     34 CL         64.5161   83.1749   15.3957 Cl      1  UNL1       -0.0822
     35 C          63.8844   82.6132   12.9389 C.ar    1  UNL1        0.0111
     36 C          63.3998   83.0530   11.5892 C.ar    1  UNL1       -0.0034
@<TRIPOS>BOND
     1     9    10    2
     2    10    11    2
     3    10    12    1
     4    12    14    1
     5    14    15   ar
     6    15    16   ar
     7    16    17   ar
     8    17    18    1
     9    17    19   ar
    10    19    20   ar
    11    10     1    1
    12     1     2   ar
    13     2     3   ar
    14     3     4    1
    15     3     5   ar
    16     5    21    1
    17    21    22    1
    18    23    22    1
    19    23    24    1
    20    24    25    1
    21    25    26    1
    22    26    27    1
    23    27    28    1
    24    28    30    1
    25    30    31   ar
    26    31    32   ar
    27    32    33   ar
    28    33    34    1
    29    33    35   ar
    30    35    36   ar
    31     5     6   ar
    32     6     7   ar
    33     7     8    1
    34    20    14   ar
    35     7     1   ar
    36    28    23    1
    37    36    30   ar
    38    12    13    1
    39    25    29    1
@<TRIPOS>MOLECULE
*****
 36 39 0 0 0
SMALL
GASTEIGER

@<TRIPOS>ATOM
      1 C          63.3304   85.7405   15.7401 C.ar    1  UNL1        0.1550
      2 C          64.0041   86.5105   14.6432 C.ar    1  UNL1        0.0553
      3 C          64.2101   87.9897   14.7825 C.ar    1  UNL1        0.1753
      4 F          64.8838   88.7597   13.6856 F       1  UNL1       -0.2009
      5 C          63.7424   88.6989   16.0187 C.ar    1  UNL1        0.1681
      6 C          63.0688   87.9289   17.1156 C.ar    1  UNL1        0.0702
      7 C          62.8628   86.4497   16.9763 C.ar    1  UNL1        0.1620
      8 F          62.1891   85.6797   18.0732 F       1  UNL1       -0.2026
      9 O          64.6020   84.0424   15.7385 O.2     1  UNL1       -0.1498
     10 S          63.1244   84.2612   15.6008 S.O2    1  UNL1        0.0780
     11 O          61.6469   84.4800   15.4631 O.2     1  UNL1       -0.1498
     12 N          62.9184   82.7820   15.4614 N.pl3   1  UNL1       -0.1835
     13 H          62.7842   82.2261   16.2628 H       1  UNL1        0.1767
     14 C          62.9169   82.1498   14.1011 C.ar    1  UNL1        0.2361
     15 N          63.1951   82.9841   12.8860 N.ar    1  UNL1       -0.2087
     16 C          63.1936   82.3519   11.5258 C.ar    1  UNL1        0.1330
     17 C          62.9139   80.8853   11.3807 C.ar    1  UNL1        0.1784
     18 F          62.9125   80.2531   10.0204 F       1  UNL1       -0.2009
     19 C          62.6357   80.0510   12.5958 C.ar    1  UNL1        0.1330
     20 N          62.6372   80.6833   13.9560 N.ar    1  UNL1       -0.2087
     21 O          63.9484   90.1782   16.1580 O.3     1  UNL1       -0.4731
     22 C          63.6833   91.0854   14.9933 C.3     1  UNL1        0.2071
     23 C          64.8247   91.7667   14.2984 C.3     1  UNL1        0.0635
     24 C          65.9423   92.3641   15.1009 C.3     1  UNL1        0.0726
     25 N          67.0838   93.0455   14.4059 N.3     1  UNL1       -0.2973
     26 C          67.1075   93.1295   12.9085 C.3     1  UNL1        0.0689
     27 C          65.9899   92.5321   12.1060 C.3     1  UNL1        0.0216
     28 C          64.8485   91.8508   12.8009 C.3     1  UNL1        0.0286
     29 H          67.9337   92.5566   14.6869 H       1  UNL1        0.1232
     30 C          63.7309   91.2534   11.9983 C.ar    1  UNL1       -0.0222
     31 C          62.6660   90.4465   12.6801 C.ar    1  UNL1       -0.0034
     32 C          61.5484   89.8491   11.8776 C.ar    1  UNL1        0.0111
     33 C          61.4956   90.0586   10.3933 C.ar    1  UNL1        0.0577
     34 CL         60.3780   89.4613    9.5907 Cl      1  UNL1       -0.0822
     35 C          62.5605   90.8656    9.7114 C.ar    1  UNL1        0.0111
     36 C          63.6782   91.4630   10.5139 C.ar    1  UNL1       -0.0034
@<TRIPOS>BOND
     1     9    10    2
     2    10    11    2
     3    10    12    1
     4    12    14    1
     5    14    15   ar
     6    15    16   ar
     7    16    17   ar
     8    17    18    1
     9    17    19   ar
    10    19    20   ar
    11    10     1    1
    12     1     2   ar
    13     2     3   ar
    14     3     4    1
    15     3     5   ar
    16     5    21    1
    17    21    22    1
    18    23    22    1
    19    23    24    1
    20    24    25    1
    21    25    26    1
    22    26    27    1
    23    27    28    1
    24    28    30    1
    25    30    31   ar
    26    31    32   ar
    27    32    33   ar
    28    33    34    1
    29    33    35   ar
    30    35    36   ar
    31     5     6   ar
    32     6     7   ar
    33     7     8    1
    34    20    14   ar
    35     7     1   ar
    36    28    23    1
    37    36    30   ar
    38    12    13    1
    39    25    29    1
@<TRIPOS>MOLECULE
*****
 36 39 0 0 0
SMALL
GASTEIGER

@<TRIPOS>ATOM
      1 C          62.7943   88.6388   11.9352 C.ar    1  UNL1        0.1550
      2 C          61.9904   88.2474   10.7308 C.ar    1  UNL1        0.0553
      3 C          61.8270   86.7991   10.3765 C.ar    1  UNL1        0.1753
      4 F          61.0231   86.4078    9.1721 F       1  UNL1       -0.2009
      5 C          62.4674   85.7422   11.2266 C.ar    1  UNL1        0.1681
      6 C          63.2713   86.1336   12.4310 C.ar    1  UNL1        0.0702
      7 C          63.4348   87.5819   12.7853 C.ar    1  UNL1        0.1620
      8 F          64.2387   87.9732   13.9897 F       1  UNL1       -0.2026
      9 O          62.3162   89.8338   13.6215 O.2     1  UNL1       -0.1498
     10 S          62.9578   90.0872   12.2896 S.O2    1  UNL1        0.0780
     11 O          63.5993   90.3406   10.9576 O.2     1  UNL1       -0.1498
     12 N          63.1212   91.5356   12.6438 N.pl3   1  UNL1       -0.1835
     13 H          62.3929   92.1723   12.4611 H       1  UNL1        0.1767
     14 C          64.3944   92.0139   13.2765 C.ar    1  UNL1        0.2361
     15 N          64.7150   91.6391   14.6931 N.ar    1  UNL1       -0.2087
     16 C          65.9881   92.1174   15.3257 C.ar    1  UNL1        0.1330
     17 C          66.9407   92.9706   14.5417 C.ar    1  UNL1        0.1784
     18 F          68.2139   93.4489   15.1744 F       1  UNL1       -0.2009
     19 C          66.6202   93.3454   13.1251 C.ar    1  UNL1        0.1330
     20 N          65.3471   92.8671   12.4925 N.ar    1  UNL1       -0.2087
     21 O          62.3040   84.2938   10.8722 O.3     1  UNL1       -0.4731
     22 C          63.4270   83.3302   11.1178 C.3     1  UNL1        0.2071
     23 C          63.1361   81.9608   11.6563 C.3     1  UNL1        0.0635
     24 C          63.0075   80.7977   10.7179 C.3     1  UNL1        0.0726
     25 N          62.7166   79.4282   11.2565 N.3     1  UNL1       -0.2973
     26 C          62.5541   79.2220   12.7333 C.3     1  UNL1        0.0689
     27 C          62.6826   80.3852   13.6716 C.3     1  UNL1        0.0216
     28 C          62.9736   81.7546   13.1332 C.3     1  UNL1        0.0286
     29 H          63.4830   78.8252   10.9575 H       1  UNL1        0.1232
     30 C          63.1021   82.9177   14.0715 C.ar    1  UNL1       -0.0222
     31 C          64.4543   83.4935   14.3714 C.ar    1  UNL1       -0.0034
     32 C          64.5828   84.6567   15.3098 C.ar    1  UNL1        0.0111
     33 C          63.3591   85.2441   15.9482 C.ar    1  UNL1        0.0577
     34 CL         63.4877   86.4073   16.8865 Cl      1  UNL1       -0.0822
     35 C          62.0069   84.6683   15.6482 C.ar    1  UNL1        0.0111
     36 C          61.8783   83.5051   14.7099 C.ar    1  UNL1       -0.0034
@<TRIPOS>BOND
     1     9    10    2
     2    10    11    2
     3    10    12    1
     4    12    14    1
     5    14    15   ar
     6    15    16   ar
     7    16    17   ar
     8    17    18    1
     9    17    19   ar
    10    19    20   ar
    11    10     1    1
    12     1     2   ar
    13     2     3   ar
    14     3     4    1
    15     3     5   ar
    16     5    21    1
    17    21    22    1
    18    23    22    1
    19    23    24    1
    20    24    25    1
    21    25    26    1
    22    26    27    1
    23    27    28    1
    24    28    30    1
    25    30    31   ar
    26    31    32   ar
    27    32    33   ar
    28    33    34    1
    29    33    35   ar
    30    35    36   ar
    31     5     6   ar
    32     6     7   ar
    33     7     8    1
    34    20    14   ar
    35     7     1   ar
    36    28    23    1
    37    36    30   ar
    38    12    13    1
    39    25    29    1
