@<TRIPOS>MOLECULE
*****
 17 17 0 0 0
SMALL
GASTEIGER

@<TRIPOS>ATOM
      1 C          62.8736   84.3891   12.2231 C.ar    1  UNL1       -0.0210
      2 C          63.5571   83.4071   11.3184 C.ar    1  UNL1       -0.0045
      3 C          63.6127   83.6611    9.8411 C.ar    1  UNL1       -0.0034
      4 C          62.9847   84.8971    9.2685 C.ar    1  UNL1       -0.0084
      5 C          63.0403   85.1512    7.7912 C.3     1  UNL1        0.0323
      6 C          62.3012   85.8791   10.1731 C.ar    1  UNL1        0.0451
      7 C          62.2456   85.6251   11.6504 C.ar    1  UNL1        0.0101
      8 N          61.6732   87.1152    9.6005 N.pl3   1  UNL1       -0.2933
      9 H          62.2285   87.9044    9.4057 H       1  UNL1        0.1538
     10 C          60.1992   87.1487    9.3248 C.2     1  UNL1        0.2056
     11 N          59.6577   86.5398    8.0653 N.2     1  UNL1       -0.0679
     12 O          58.1837   86.5733    7.7895 O.2     1  UNL1       -0.4077
     13 H          57.8455   86.1930    7.0028 H       1  UNL1        0.3278
     14 C          62.8180   84.1350   13.7003 C.3     1  UNL1        0.0264
     15 C          63.0290   82.7482   14.2313 C.3     1  UNL1        0.0047
     16 C          62.0453   80.4615   13.4873 C.3     1  UNL1        0.0000
     17 C          61.8994   81.7614   14.2216 C.3     1  UNL1        0.0003
@<TRIPOS>BOND
     1    16    17    1
     2    17    15    1
     3    15    14    1
     4    14     1    1
     5     1     2   ar
     6     2     3   ar
     7     3     4   ar
     8     4     5    1
     9     4     6   ar
    10     6     8    1
    11     8    10    1
    12    10    11    2
    13    11    12    1
    14     6     7   ar
    15     7     1   ar
    16     8     9    1
    17    12    13    1
@<TRIPOS>MOLECULE
*****
 17 17 0 0 0
SMALL
GASTEIGER

@<TRIPOS>ATOM
      1 C          63.3478   83.6703   12.3939 C.ar    1  UNL1       -0.0210
      2 C          64.0908   82.9839   11.2863 C.ar    1  UNL1       -0.0045
      3 C          63.9724   83.4884    9.8786 C.ar    1  UNL1       -0.0034
      4 C          63.1111   84.6792    9.5785 C.ar    1  UNL1       -0.0084
      5 C          62.9928   85.1836    8.1708 C.3     1  UNL1        0.0323
      6 C          62.3681   85.3655   10.6861 C.ar    1  UNL1        0.0451
      7 C          62.4864   84.8611   12.0938 C.ar    1  UNL1        0.0101
      8 N          61.5067   86.5564   10.3861 N.pl3   1  UNL1       -0.2933
      9 H          60.7890   86.4883    9.7156 H       1  UNL1        0.1538
     10 C          61.7388   87.8508   11.1075 C.2     1  UNL1        0.2056
     11 N          60.6023   88.5316   11.8110 N.2     1  UNL1       -0.0679
     12 O          60.8344   89.8260   12.5325 O.2     1  UNL1       -0.4077
     13 H          60.1245   90.2513   12.9719 H       1  UNL1        0.3278
     14 C          63.4661   83.1659   13.8015 C.3     1  UNL1        0.0264
     15 C          62.2789   82.5485   14.4793 C.3     1  UNL1        0.0047
     16 C          62.4014   80.2034   13.3678 C.3     1  UNL1        0.0000
     17 C          61.5928   81.3666   13.8609 C.3     1  UNL1        0.0003
@<TRIPOS>BOND
     1    16    17    1
     2    17    15    1
     3    15    14    1
     4    14     1    1
     5     1     2   ar
     6     2     3   ar
     7     3     4   ar
     8     4     5    1
     9     4     6   ar
    10     6     8    1
    11     8    10    1
    12    10    11    2
    13    11    12    1
    14     6     7   ar
    15     7     1   ar
    16     8     9    1
    17    12    13    1
@<TRIPOS>MOLECULE
*****
 17 17 0 0 0
SMALL
GASTEIGER

@<TRIPOS>ATOM
      1 C          62.8305   84.4185   12.2246 C.ar    1  UNL1       -0.0210
      2 C          63.5157   83.4255   11.3333 C.ar    1  UNL1       -0.0045
      3 C          63.5899   83.6705    9.8553 C.ar    1  UNL1       -0.0034
      4 C          62.9789   84.9084    9.2686 C.ar    1  UNL1       -0.0084
      5 C          63.0532   85.1533    7.7906 C.3     1  UNL1        0.0323
      6 C          62.2937   85.9013   10.1599 C.ar    1  UNL1        0.0451
      7 C          62.2195   85.6564   11.6379 C.ar    1  UNL1        0.0101
      8 N          61.6827   87.1393    9.5732 N.pl3   1  UNL1       -0.2933
      9 H          62.2480   87.9202    9.3735 H       1  UNL1        0.1538
     10 C          60.2103   87.1875    9.2908 C.2     1  UNL1        0.2056
     11 N          59.6559   86.4976    8.0796 N.2     1  UNL1       -0.0679
     12 O          58.1836   86.5458    7.7972 O.2     1  UNL1       -0.4077
     13 H          57.8373   86.1149    7.0407 H       1  UNL1        0.3278
     14 C          62.7562   84.1736   13.7026 C.3     1  UNL1        0.0264
     15 C          64.0164   84.0216   14.5019 C.3     1  UNL1        0.0047
     16 C          64.4172   86.5665   14.8379 C.3     1  UNL1        0.0000
     17 C          64.9578   85.1806   14.6455 C.3     1  UNL1        0.0003
@<TRIPOS>BOND
     1    16    17    1
     2    17    15    1
     3    15    14    1
     4    14     1    1
     5     1     2   ar
     6     2     3   ar
     7     3     4   ar
     8     4     5    1
     9     4     6   ar
    10     6     8    1
    11     8    10    1
    12    10    11    2
    13    11    12    1
    14     6     7   ar
    15     7     1   ar
    16     8     9    1
    17    12    13    1
@<TRIPOS>MOLECULE
*****
 17 17 0 0 0
SMALL
GASTEIGER

@<TRIPOS>ATOM
      1 C          61.6749   86.3931   10.2596 C.ar    1  UNL1       -0.0210
      2 C          62.3582   85.9152    9.0128 C.ar    1  UNL1       -0.0045
      3 C          63.2415   84.7037    9.0590 C.ar    1  UNL1       -0.0034
      4 C          63.4415   83.9702   10.3520 C.ar    1  UNL1       -0.0084
      5 C          64.3248   82.7588   10.3983 C.3     1  UNL1        0.0323
      6 C          62.7582   84.4482   11.5988 C.ar    1  UNL1        0.0451
      7 C          61.8749   85.6597   11.5526 C.ar    1  UNL1        0.0101
      8 N          62.9582   83.7147   12.8920 N.pl3   1  UNL1       -0.2933
      9 H          63.0150   82.7319   12.8967 H       1  UNL1        0.1538
     10 C          63.0715   84.4787   14.1778 C.2     1  UNL1        0.2056
     11 N          61.9147   84.5168   15.1321 N.2     1  UNL1       -0.0679
     12 O          62.0280   85.2808   16.4179 O.2     1  UNL1       -0.4077
     13 H          61.3054   85.3045   17.0140 H       1  UNL1        0.3278
     14 C          60.7916   87.6046   10.2133 C.3     1  UNL1        0.0264
     15 C          60.6436   88.3765    8.9358 C.3     1  UNL1        0.0047
     16 C          59.0552   86.7775    7.6434 C.3     1  UNL1        0.0000
     17 C          59.4397   88.1643    8.0665 C.3     1  UNL1        0.0003
@<TRIPOS>BOND
     1    16    17    1
     2    17    15    1
     3    15    14    1
     4    14     1    1
     5     1     2   ar
     6     2     3   ar
     7     3     4   ar
     8     4     5    1
     9     4     6   ar
    10     6     8    1
    11     8    10    1
    12    10    11    2
    13    11    12    1
    14     6     7   ar
    15     7     1   ar
    16     8     9    1
    17    12    13    1
@<TRIPOS>MOLECULE
*****
 17 17 0 0 0
SMALL
GASTEIGER

@<TRIPOS>ATOM
      1 C          61.5658   86.4535   10.0269 C.ar    1  UNL1       -0.0210
      2 C          62.3014   85.9974    8.8019 C.ar    1  UNL1       -0.0045
      3 C          63.2152   84.8101    8.8743 C.ar    1  UNL1       -0.0034
      4 C          63.3934   84.0789   10.1718 C.ar    1  UNL1       -0.0084
      5 C          64.3072   82.8916   10.2443 C.3     1  UNL1        0.0323
      6 C          62.6578   84.5350   11.3969 C.ar    1  UNL1        0.0451
      7 C          61.7440   85.7223   11.3244 C.ar    1  UNL1        0.0101
      8 N          62.8359   83.8037   12.6944 N.pl3   1  UNL1       -0.2933
      9 H          62.8103   82.8197   12.7125 H       1  UNL1        0.1538
     10 C          63.0532   84.5717   13.9644 C.2     1  UNL1        0.2056
     11 N          61.9980   84.5718   15.0307 N.2     1  UNL1       -0.0679
     12 O          62.2153   85.3398   16.3007 O.2     1  UNL1       -0.4077
     13 H          61.5562   85.3399   16.9667 H       1  UNL1        0.3278
     14 C          60.6520   87.6408    9.9545 C.3     1  UNL1        0.0264
     15 C          61.2181   89.0096    9.7181 C.3     1  UNL1        0.0047
     16 C          62.7119   89.4572   11.7961 C.3     1  UNL1        0.0000
     17 C          62.5458   89.3841   10.3071 C.3     1  UNL1        0.0003
@<TRIPOS>BOND
     1    16    17    1
     2    17    15    1
     3    15    14    1
     4    14     1    1
     5     1     2   ar
     6     2     3   ar
     7     3     4   ar
     8     4     5    1
     9     4     6   ar
    10     6     8    1
    11     8    10    1
    12    10    11    2
    13    11    12    1
    14     6     7   ar
    15     7     1   ar
    16     8     9    1
    17    12    13    1
@<TRIPOS>MOLECULE
*****
 17 17 0 0 0
SMALL
GASTEIGER

@<TRIPOS>ATOM
      1 C          65.2029   92.6414   11.3158 C.ar    1  UNL1       -0.0210
      2 C          64.3357   92.1519   10.1940 C.ar    1  UNL1       -0.0045
      3 C          63.2537   91.1490   10.4651 C.ar    1  UNL1       -0.0034
      4 C          63.0390   90.6355   11.8579 C.ar    1  UNL1       -0.0084
      5 C          61.9570   89.6325   12.1290 C.3     1  UNL1        0.0323
      6 C          63.9061   91.1249   12.9797 C.ar    1  UNL1        0.0451
      7 C          64.9881   92.1279   12.7086 C.ar    1  UNL1        0.0101
      8 N          63.6914   90.6114   14.3727 N.pl3   1  UNL1       -0.2933
      9 H          63.0208   89.9105   14.5410 H       1  UNL1        0.1538
     10 C          64.4984   91.1657   15.5091 C.2     1  UNL1        0.2056
     11 N          63.8837   92.1574   16.4518 N.2     1  UNL1       -0.0679
     12 O          64.6906   92.7117   17.5883 O.2     1  UNL1       -0.4077
     13 H          64.3067   93.3312   18.1771 H       1  UNL1        0.3278
     14 C          66.2848   93.6443   11.0447 C.3     1  UNL1        0.0264
     15 C          66.7973   93.8356    9.6480 C.3     1  UNL1        0.0047
     16 C          68.7294   92.2770    8.8814 C.3     1  UNL1        0.0000
     17 C          68.2508   93.6204    9.3464 C.3     1  UNL1        0.0003
@<TRIPOS>BOND
     1    16    17    1
     2    17    15    1
     3    15    14    1
     4    14     1    1
     5     1     2   ar
     6     2     3   ar
     7     3     4   ar
     8     4     5    1
     9     4     6   ar
    10     6     8    1
    11     8    10    1
    12    10    11    2
    13    11    12    1
    14     6     7   ar
    15     7     1   ar
    16     8     9    1
    17    12    13    1
@<TRIPOS>MOLECULE
*****
 17 17 0 0 0
SMALL
GASTEIGER

@<TRIPOS>ATOM
      1 C          62.5101   89.0319   11.2442 C.ar    1  UNL1       -0.0210
      2 C          62.6609   90.1534   10.2597 C.ar    1  UNL1       -0.0045
      3 C          63.5373   91.3259   10.5871 C.ar    1  UNL1       -0.0034
      4 C          64.2629   91.3769   11.8989 C.ar    1  UNL1       -0.0084
      5 C          65.1393   92.5494   12.2262 C.3     1  UNL1        0.0323
      6 C          64.1121   90.2553   12.8834 C.ar    1  UNL1        0.0451
      7 C          63.2357   89.0828   12.5560 C.ar    1  UNL1        0.0101
      8 N          64.8377   90.3062   14.1953 N.pl3   1  UNL1       -0.2933
      9 H          65.7099   89.8602   14.2930 H       1  UNL1        0.1538
     10 C          64.2343   91.0366   15.3582 C.2     1  UNL1        0.2056
     11 N          64.9656   92.1884   15.9816 N.2     1  UNL1       -0.0679
     12 O          64.3623   92.9187   17.1446 O.2     1  UNL1       -0.4077
     13 H          64.8191   93.6382   17.5340 H       1  UNL1        0.3278
     14 C          61.6337   87.8594   10.9169 C.3     1  UNL1        0.0264
     15 C          62.1711   86.7289   10.0904 C.3     1  UNL1        0.0047
     16 C          60.0688   86.8003    8.5655 C.3     1  UNL1        0.0000
     17 C          61.4620   86.3142    8.8354 C.3     1  UNL1        0.0003
@<TRIPOS>BOND
     1    16    17    1
     2    17    15    1
     3    15    14    1
     4    14     1    1
     5     1     2   ar
     6     2     3   ar
     7     3     4   ar
     8     4     5    1
     9     4     6   ar
    10     6     8    1
    11     8    10    1
    12    10    11    2
    13    11    12    1
    14     6     7   ar
    15     7     1   ar
    16     8     9    1
    17    12    13    1
@<TRIPOS>MOLECULE
*****
 17 17 0 0 0
SMALL
GASTEIGER

@<TRIPOS>ATOM
      1 C          63.0800   84.6140   10.7945 C.ar    1  UNL1       -0.0210
      2 C          63.1894   84.6211    9.2985 C.ar    1  UNL1       -0.0045
      3 C          62.3403   85.5556    8.4888 C.ar    1  UNL1       -0.0034
      4 C          61.3818   86.4832    9.1750 C.ar    1  UNL1       -0.0084
      5 C          60.5328   87.4178    8.3653 C.3     1  UNL1        0.0323
      6 C          61.2724   86.4762   10.6710 C.ar    1  UNL1        0.0451
      7 C          62.1215   85.5416   11.4807 C.ar    1  UNL1        0.0101
      8 N          60.3140   87.4037   11.3573 N.pl3   1  UNL1       -0.2933
      9 H          59.4754   87.0533   11.7358 H       1  UNL1        0.1538
     10 C          60.6331   88.8653   11.4669 C.2     1  UNL1        0.2056
     11 N          61.8742   89.3104   12.1820 N.2     1  UNL1       -0.0679
     12 O          62.1933   90.7720   12.2916 O.2     1  UNL1       -0.4077
     13 H          62.9687   91.0500   12.7383 H       1  UNL1        0.3278
     14 C          63.9290   83.6795   11.6042 C.3     1  UNL1        0.0264
     15 C          63.6372   82.2081   11.6014 C.3     1  UNL1        0.0047
     16 C          62.4722   80.9264   13.5379 C.3     1  UNL1        0.0000
     17 C          62.3876   81.6901   12.2495 C.3     1  UNL1        0.0003
@<TRIPOS>BOND
     1    16    17    1
     2    17    15    1
     3    15    14    1
     4    14     1    1
     5     1     2   ar
     6     2     3   ar
     7     3     4   ar
     8     4     5    1
     9     4     6   ar
    10     6     8    1
    11     8    10    1
    12    10    11    2
    13    11    12    1
    14     6     7   ar
    15     7     1   ar
    16     8     9    1
    17    12    13    1
@<TRIPOS>MOLECULE
*****
 17 17 0 0 0
SMALL
GASTEIGER

@<TRIPOS>ATOM
      1 C          63.3888   83.6732   11.3576 C.ar    1  UNL1       -0.0210
      2 C          63.2775   84.5377   12.5783 C.ar    1  UNL1       -0.0045
      3 C          62.7815   85.9480   12.4560 C.ar    1  UNL1       -0.0034
      4 C          62.3968   86.4939   11.1129 C.ar    1  UNL1       -0.0084
      5 C          61.9008   87.9042   10.9905 C.3     1  UNL1        0.0323
      6 C          62.5081   85.6294    9.8921 C.ar    1  UNL1        0.0451
      7 C          63.0041   84.2191   10.0145 C.ar    1  UNL1        0.0101
      8 N          62.1234   86.1753    8.5489 N.pl3   1  UNL1       -0.2933
      9 H          62.7756   86.6915    8.0221 H       1  UNL1        0.1538
     10 C          60.7451   85.9348    8.0083 C.2     1  UNL1        0.2056
     11 N          59.6202   86.8518    8.3875 N.2     1  UNL1       -0.0679
     12 O          58.2418   86.6112    7.8469 O.2     1  UNL1       -0.4077
     13 H          57.5391   87.1840    8.0837 H       1  UNL1        0.3278
     14 C          63.8848   82.2629   11.4799 C.3     1  UNL1        0.0264
     15 C          62.9071   81.1320   11.6027 C.3     1  UNL1        0.0047
     16 C          61.7065   81.3190   13.8992 C.3     1  UNL1        0.0000
     17 C          62.5878   80.5598   12.9520 C.3     1  UNL1        0.0003
@<TRIPOS>BOND
     1    16    17    1
     2    17    15    1
     3    15    14    1
     4    14     1    1
     5     1     2   ar
     6     2     3   ar
     7     3     4   ar
     8     4     5    1
     9     4     6   ar
    10     6     8    1
    11     8    10    1
    12    10    11    2
    13    11    12    1
    14     6     7   ar
    15     7     1   ar
    16     8     9    1
    17    12    13    1
