@<TRIPOS>MOLECULE
*****
 37 41 0 0 0
SMALL
GASTEIGER

@<TRIPOS>ATOM
      1 C          64.2290   85.1715   15.2813 C.2     1  UNL1        0.2320
      2 O          65.5629   85.7146   14.8621 O.2     1  UNL1       -0.2744
      3 N          63.1574   86.1039   15.7632 N.am    1  UNL1       -0.2639
      4 H          62.2820   85.7474   16.0383 H       1  UNL1        0.1567
      5 C          63.4197   87.5794   15.8260 C.ar    1  UNL1        0.1655
      6 N          64.2364   88.3721   14.8490 N.ar    1  UNL1       -0.2239
      7 C          64.2329   89.8039   15.2960 C.ar    1  UNL1        0.0913
      8 C          63.4140   89.8962   16.5493 C.ar    1  UNL1        0.0573
      9 S          62.9114   88.5214   16.8769 S.2     1  UNL1       -0.0508
     10 C          64.9265   90.9435   14.6101 C.ar    1  UNL1        0.0404
     11 C          65.9552   91.8468   15.2231 C.ar    1  UNL1        0.1021
     12 N          66.3776   92.8414   14.1827 N.ar    1  UNL1       -0.2269
     13 C          65.6099   92.5527   12.9268 C.ar    1  UNL1        0.1407
     14 N          65.6116   93.2064   11.5768 N.ar    1  UNL1       -0.3356
     15 C          64.7165   92.6872   10.4909 C.ar    1  UNL1        0.1035
     16 C          63.8196   91.5142   10.7550 C.ar    1  UNL1        0.1572
     17 F          62.9245   90.9950    9.6691 F       1  UNL1       -0.2026
     18 C          63.8179   90.8605   12.1050 C.ar    1  UNL1        0.0343
     19 C          64.7130   91.3797   13.1909 C.ar    1  UNL1        0.0392
     20 H          66.2003   93.9763   11.4034 H       1  UNL1        0.1675
     21 C          63.9667   83.6959   15.2185 C.3     1  UNL1        0.1118
     22 C          63.7896   83.0674   11.3039 C.ar    1  UNL1        0.1383
     23 C          63.1146   81.7285   11.2620 C.ar    1  UNL1        0.0369
     24 C          62.7236   81.0455   12.5389 C.ar    1  UNL1        0.0028
     25 C          63.0076   81.7012   13.8577 C.ar    1  UNL1       -0.0036
     26 C          63.6826   83.0401   13.8997 C.ar    1  UNL1       -0.0101
     27 C          64.0737   83.7233   12.6227 C.ar    1  UNL1        0.0331
     28 O          64.1806   83.7505   10.0270 O.3     1  UNL1       -0.4740
     29 C          63.1785   84.5848    9.2855 C.3     1  UNL1        0.2226
     30 C          62.3168   85.5605   10.0307 C.3     1  UNL1        0.1201
     31 C          58.7807   89.3543    7.0138 C.3     1  UNL1        0.0897
     32 N          59.6646   88.4058    7.7679 N.3     1  UNL1       -0.2691
     33 C          60.5287   88.9128    8.8844 C.3     1  UNL1        0.0897
     34 C          61.4127   87.9644    9.6386 C.3     1  UNL1        0.0898
     35 N          61.4327   86.5089    9.2765 N.3     1  UNL1       -0.2672
     36 C          60.5688   86.0019    8.1600 C.3     1  UNL1        0.0898
     37 C          59.6847   86.9503    7.4058 C.3     1  UNL1        0.0897
@<TRIPOS>BOND
     1    31    32    1
     2    32    33    1
     3    33    34    1
     4    34    35    1
     5    35    30    1
     6    30    29    1
     7    29    28    1
     8    28    22    1
     9    22    23   ar
    10    23    24   ar
    11    24    25   ar
    12    25    26   ar
    13    26    21    1
    14    21     1    1
    15     1     2    2
    16     1     3   am
    17     3     5    1
    18     5     6   ar
    19     6     7   ar
    20     7    10    1
    21    10    11   ar
    22    11    12   ar
    23    12    13   ar
    24    13    14   ar
    25    14    15   ar
    26    15    16   ar
    27    16    17    1
    28    16    18   ar
    29    18    19   ar
    30     7     8   ar
    31     8     9   ar
    32    26    27   ar
    33    35    36    1
    34    36    37    1
    35    37    32    1
    36    27    22   ar
    37     9     5   ar
    38    19    10   ar
    39    19    13    1
    40     3     4    1
    41    14    20    1
@<TRIPOS>MOLECULE
*****
 37 41 0 0 0
SMALL
GASTEIGER

@<TRIPOS>ATOM
      1 C          63.7640   89.4830   15.2268 C.2     1  UNL1        0.2320
      2 O          62.4955   89.3644   16.0184 O.2     1  UNL1       -0.2744
      3 N          64.4774   88.2475   14.7637 N.am    1  UNL1       -0.2639
      4 H          65.3100   88.3253   14.2441 H       1  UNL1        0.1567
      5 C          63.9222   86.8934   15.0922 C.ar    1  UNL1        0.1655
      6 N          63.6826   85.7785   14.1177 N.ar    1  UNL1       -0.2239
      7 C          63.1215   84.6124   14.8760 C.ar    1  UNL1        0.0913
      8 C          63.0142   85.0064   16.3193 C.ar    1  UNL1        0.0573
      9 S          63.5091   86.4161   16.4529 S.2     1  UNL1       -0.0508
     10 C          62.7354   83.2851   14.2934 C.ar    1  UNL1        0.0404
     11 C          61.9516   82.2116   14.9886 C.ar    1  UNL1        0.1021
     12 N          61.7970   81.0614   14.0382 N.ar    1  UNL1       -0.2269
     13 C          62.4853   81.4241   12.7558 C.ar    1  UNL1        0.1407
     14 N          62.6589   80.6805   11.4647 N.ar    1  UNL1       -0.3356
     15 C          63.4124   81.3112   10.3313 C.ar    1  UNL1        0.1035
     16 C          63.9923   82.6855   10.4891 C.ar    1  UNL1        0.1572
     17 F          64.7459   83.3162    9.3557 F       1  UNL1       -0.2026
     18 C          63.8188   83.4292   11.7801 C.ar    1  UNL1        0.0343
     19 C          63.0652   82.7985   12.9135 C.ar    1  UNL1        0.0392
     20 H          62.2783   79.7785   11.3612 H       1  UNL1        0.1675
     21 C          64.3192   90.8372   14.8983 C.3     1  UNL1        0.1118
     22 C          63.5166   91.2122   11.0297 C.ar    1  UNL1        0.1383
     23 C          64.5822   92.1818   10.6119 C.ar    1  UNL1        0.0369
     24 C          65.5600   92.7032   11.6228 C.ar    1  UNL1        0.0028
     25 C          65.4724   92.2551   13.0516 C.ar    1  UNL1       -0.0036
     26 C          64.4069   91.2854   13.4695 C.ar    1  UNL1       -0.0101
     27 C          63.4290   90.7640   12.4586 C.ar    1  UNL1        0.0331
     28 O          62.5388   90.6908   10.0188 O.3     1  UNL1       -0.4740
     29 C          61.1669   90.2662   10.4521 C.3     1  UNL1        0.2226
     30 C          60.8969   88.8286   10.7845 C.3     1  UNL1        0.1201
     31 C          61.4693   84.6126    6.5539 C.3     1  UNL1        0.0897
     32 N          61.3263   85.6666    7.6116 N.3     1  UNL1       -0.2691
     33 C          60.0631   86.4704    7.7034 C.3     1  UNL1        0.0897
     34 C          59.9200   87.5244    8.7609 C.3     1  UNL1        0.0898
     35 N          61.0400   87.7746    9.7268 N.3     1  UNL1       -0.2672
     36 C          62.3032   86.9709    9.6351 C.3     1  UNL1        0.0898
     37 C          62.4463   85.9169    8.5774 C.3     1  UNL1        0.0897
@<TRIPOS>BOND
     1    31    32    1
     2    32    33    1
     3    33    34    1
     4    34    35    1
     5    35    30    1
     6    30    29    1
     7    29    28    1
     8    28    22    1
     9    22    23   ar
    10    23    24   ar
    11    24    25   ar
    12    25    26   ar
    13    26    21    1
    14    21     1    1
    15     1     2    2
    16     1     3   am
    17     3     5    1
    18     5     6   ar
    19     6     7   ar
    20     7    10    1
    21    10    11   ar
    22    11    12   ar
    23    12    13   ar
    24    13    14   ar
    25    14    15   ar
    26    15    16   ar
    27    16    17    1
    28    16    18   ar
    29    18    19   ar
    30     7     8   ar
    31     8     9   ar
    32    26    27   ar
    33    35    36    1
    34    36    37    1
    35    37    32    1
    36    27    22   ar
    37     9     5   ar
    38    19    10   ar
    39    19    13    1
    40     3     4    1
    41    14    20    1
@<TRIPOS>MOLECULE
*****
 37 41 0 0 0
SMALL
GASTEIGER

@<TRIPOS>ATOM
      1 C          64.2578   84.8435   15.1635 C.2     1  UNL1        0.2320
      2 O          65.5668   85.4156   14.7060 O.2     1  UNL1       -0.2744
      3 N          63.1622   85.7562   15.6288 N.am    1  UNL1       -0.2639
      4 H          62.3030   85.3807   15.9290 H       1  UNL1        0.1567
      5 C          63.3755   87.2408   15.6368 C.ar    1  UNL1        0.1655
      6 N          63.9635   88.0532   14.5212 N.ar    1  UNL1       -0.2239
      7 C          63.9897   89.4883   14.9566 C.ar    1  UNL1        0.0913
      8 C          63.4179   89.5630   16.3414 C.ar    1  UNL1        0.0573
      9 S          63.0383   88.1741   16.7617 S.2     1  UNL1       -0.0508
     10 C          64.4984   90.6455   14.1492 C.ar    1  UNL1        0.0404
     11 C          63.8705   91.1943   12.9023 C.ar    1  UNL1        0.1021
     12 N          64.7083   92.3451   12.4293 N.ar    1  UNL1       -0.2269
     13 C          65.8539   92.5076   13.3839 C.ar    1  UNL1        0.1407
     14 N          66.9985   93.4763   13.4225 N.ar    1  UNL1       -0.3356
     15 C          68.0134   93.3946   14.5240 C.ar    1  UNL1        0.1035
     16 C          67.8837   92.3442   15.5870 C.ar    1  UNL1        0.1572
     17 F          68.8986   92.2625   16.6885 F       1  UNL1       -0.2026
     18 C          66.7391   91.3755   15.5483 C.ar    1  UNL1        0.0343
     19 C          65.7242   91.4572   14.4468 C.ar    1  UNL1        0.0392
     20 H          67.0836   94.1657   12.7249 H       1  UNL1        0.1675
     21 C          64.0445   83.3588   15.1555 C.3     1  UNL1        0.1118
     22 C          63.7659   82.5790   11.2742 C.ar    1  UNL1        0.1383
     23 C          63.0811   81.2448   11.3015 C.ar    1  UNL1        0.0369
     24 C          62.7174   80.6152   12.6135 C.ar    1  UNL1        0.0028
     25 C          63.0385   81.3198   13.8982 C.ar    1  UNL1       -0.0036
     26 C          63.7233   82.6541   13.8709 C.ar    1  UNL1       -0.0101
     27 C          64.0871   83.2838   12.5589 C.ar    1  UNL1        0.0331
     28 O          64.1296   83.2086    9.9622 O.3     1  UNL1       -0.4740
     29 C          63.4654   84.4829    9.5321 C.3     1  UNL1        0.2226
     30 C          62.0567   84.7748    9.9570 C.3     1  UNL1        0.1201
     31 C          60.2460   90.4537   10.6437 C.3     1  UNL1        0.0897
     32 N          60.6986   89.0340   10.4720 N.3     1  UNL1       -0.2691
     33 C          61.8342   88.5039   11.2964 C.3     1  UNL1        0.0897
     34 C          62.2868   87.0842   11.1247 C.3     1  UNL1        0.0898
     35 N          61.6040   86.1945   10.1287 N.3     1  UNL1       -0.2672
     36 C          60.4685   86.7245    9.3042 C.3     1  UNL1        0.0898
     37 C          60.0158   88.1443    9.4759 C.3     1  UNL1        0.0897
@<TRIPOS>BOND
     1    31    32    1
     2    32    33    1
     3    33    34    1
     4    34    35    1
     5    35    30    1
     6    30    29    1
     7    29    28    1
     8    28    22    1
     9    22    23   ar
    10    23    24   ar
    11    24    25   ar
    12    25    26   ar
    13    26    21    1
    14    21     1    1
    15     1     2    2
    16     1     3   am
    17     3     5    1
    18     5     6   ar
    19     6     7   ar
    20     7    10    1
    21    10    11   ar
    22    11    12   ar
    23    12    13   ar
    24    13    14   ar
    25    14    15   ar
    26    15    16   ar
    27    16    17    1
    28    16    18   ar
    29    18    19   ar
    30     7     8   ar
    31     8     9   ar
    32    26    27   ar
    33    35    36    1
    34    36    37    1
    35    37    32    1
    36    27    22   ar
    37     9     5   ar
    38    19    10   ar
    39    19    13    1
    40     3     4    1
    41    14    20    1
@<TRIPOS>MOLECULE
*****
 37 41 0 0 0
SMALL
GASTEIGER

@<TRIPOS>ATOM
      1 C          61.3744   87.8000   11.2664 C.2     1  UNL1        0.2320
      2 O          60.3510   88.7839   11.7507 O.2     1  UNL1       -0.2744
      3 N          62.8356   88.1150   11.3915 N.am    1  UNL1       -0.2639
      4 H          63.5073   87.4692   11.0736 H       1  UNL1        0.1567
      5 C          63.2734   89.4138   12.0007 C.ar    1  UNL1        0.1655
      6 N          63.8860   89.5886   13.3587 N.ar    1  UNL1       -0.2239
      7 C          64.1667   91.0487   13.5563 C.ar    1  UNL1        0.0913
      8 C          63.7277   91.7765   12.3203 C.ar    1  UNL1        0.0573
      9 S          63.1756   90.7661   11.3589 S.2     1  UNL1       -0.0508
     10 C          64.7790   91.6718   14.7756 C.ar    1  UNL1        0.0404
     11 C          64.0538   92.0411   16.0357 C.ar    1  UNL1        0.1021
     12 N          65.0506   92.6325   16.9878 N.ar    1  UNL1       -0.2269
     13 C          66.3918   92.6287   16.3163 C.ar    1  UNL1        0.1407
     14 N          67.7443   93.0892   16.7731 N.ar    1  UNL1       -0.3356
     15 C          68.9290   92.9559   15.8627 C.ar    1  UNL1        0.1035
     16 C          68.7612   92.3622   14.4955 C.ar    1  UNL1        0.1572
     17 F          69.9459   92.2289   13.5851 F       1  UNL1       -0.2026
     18 C          67.4087   91.9017   14.0387 C.ar    1  UNL1        0.0343
     19 C          66.2240   92.0349   14.9491 C.ar    1  UNL1        0.0392
     20 H          67.8545   93.4789   17.6705 H       1  UNL1        0.1675
     21 C          60.9366   86.5011   10.6572 C.3     1  UNL1        0.1118
     22 C          63.3103   83.3716   11.2250 C.ar    1  UNL1        0.1383
     23 C          63.9518   83.2536    9.8742 C.ar    1  UNL1        0.0369
     24 C          63.5882   84.2181    8.7845 C.ar    1  UNL1        0.0028
     25 C          62.5832   85.3006    9.0454 C.ar    1  UNL1       -0.0036
     26 C          61.9416   85.4187   10.3962 C.ar    1  UNL1       -0.0101
     27 C          62.3052   84.4542   11.4860 C.ar    1  UNL1        0.0331
     28 O          63.6738   82.4072   12.3148 O.3     1  UNL1       -0.4740
     29 C          62.9903   82.4890   13.6475 C.3     1  UNL1        0.2226
     30 C          63.7534   82.9478   14.8547 C.3     1  UNL1        0.1201
     31 C          63.1330   88.5775   16.8350 C.3     1  UNL1        0.0897
     32 N          63.2880   87.1701   16.3400 N.3     1  UNL1       -0.2691
     33 C          64.2752   86.8617   15.2534 C.3     1  UNL1        0.0897
     34 C          64.4303   85.4543   14.7584 C.3     1  UNL1        0.0898
     35 N          63.5983   84.3553   15.3498 N.3     1  UNL1       -0.2672
     36 C          62.6111   84.6636   16.4363 C.3     1  UNL1        0.0898
     37 C          62.4560   86.0710   16.9314 C.3     1  UNL1        0.0897
@<TRIPOS>BOND
     1    31    32    1
     2    32    33    1
     3    33    34    1
     4    34    35    1
     5    35    30    1
     6    30    29    1
     7    29    28    1
     8    28    22    1
     9    22    23   ar
    10    23    24   ar
    11    24    25   ar
    12    25    26   ar
    13    26    21    1
    14    21     1    1
    15     1     2    2
    16     1     3   am
    17     3     5    1
    18     5     6   ar
    19     6     7   ar
    20     7    10    1
    21    10    11   ar
    22    11    12   ar
    23    12    13   ar
    24    13    14   ar
    25    14    15   ar
    26    15    16   ar
    27    16    17    1
    28    16    18   ar
    29    18    19   ar
    30     7     8   ar
    31     8     9   ar
    32    26    27   ar
    33    35    36    1
    34    36    37    1
    35    37    32    1
    36    27    22   ar
    37     9     5   ar
    38    19    10   ar
    39    19    13    1
    40     3     4    1
    41    14    20    1
@<TRIPOS>MOLECULE
*****
 37 41 0 0 0
SMALL
GASTEIGER

@<TRIPOS>ATOM
      1 C          63.9735   90.3771   14.2678 C.2     1  UNL1        0.2320
      2 O          64.5062   89.0018   14.5409 O.2     1  UNL1       -0.2744
      3 N          62.9859   90.5924   13.1595 N.am    1  UNL1       -0.2639
      4 H          62.6362   91.4951   12.9803 H       1  UNL1        0.1567
      5 C          62.5311   89.4325   12.3243 C.ar    1  UNL1        0.1655
      6 N          63.1691   88.0757   12.2777 N.ar    1  UNL1       -0.2239
      7 C          62.3908   87.2303   11.3137 C.ar    1  UNL1        0.0913
      8 C          61.2717   88.0646   10.7644 C.ar    1  UNL1        0.0573
      9 S          61.3584   89.4256   11.3890 S.2     1  UNL1       -0.0508
     10 C          62.6807   85.8015   10.9608 C.ar    1  UNL1        0.0404
     11 C          62.8769   85.2576    9.5767 C.ar    1  UNL1        0.1021
     12 N          63.1427   83.7857    9.6905 N.ar    1  UNL1       -0.2269
     13 C          63.1107   83.4200   11.1448 C.ar    1  UNL1        0.1407
     14 N          63.3047   82.1135   11.8557 N.ar    1  UNL1       -0.3356
     15 C          63.2132   82.0528   13.3517 C.ar    1  UNL1        0.1035
     16 C          62.9276   83.2987   14.1368 C.ar    1  UNL1        0.1572
     17 F          62.8361   83.2380   15.6328 F       1  UNL1       -0.2026
     18 C          62.7336   84.6052   13.4259 C.ar    1  UNL1        0.0343
     19 C          62.8252   84.6659   11.9299 C.ar    1  UNL1        0.0392
     20 H          63.4921   81.2958   11.3405 H       1  UNL1        0.1675
     21 C          64.4282   91.5371   15.1031 C.3     1  UNL1        0.1118
     22 C          68.1781   92.0322   13.9016 C.ar    1  UNL1        0.1383
     23 C          68.7551   92.7730   15.0714 C.ar    1  UNL1        0.0369
     24 C          67.8898   93.1017   16.2517 C.ar    1  UNL1        0.0028
     25 C          66.4475   92.6898   16.2623 C.ar    1  UNL1       -0.0036
     26 C          65.8705   91.9491   15.0926 C.ar    1  UNL1       -0.0101
     27 C          66.7358   91.6202   13.9122 C.ar    1  UNL1        0.0331
     28 O          69.0434   91.7035   12.7213 O.3     1  UNL1       -0.4740
     29 C          68.4156   91.2916   11.4227 C.3     1  UNL1        0.2226
     30 C          68.5177   92.1866   10.2233 C.3     1  UNL1        0.1201
     31 C          64.7915   96.8523    9.6357 C.3     1  UNL1        0.0897
     32 N          65.7229   95.6859    9.7826 N.3     1  UNL1       -0.2691
     33 C          67.0160   95.6583    9.0228 C.3     1  UNL1        0.0897
     34 C          67.9475   94.4920    9.1697 C.3     1  UNL1        0.0898
     35 N          67.5861   93.3530   10.0764 N.3     1  UNL1       -0.2672
     36 C          66.2931   93.3805   10.8363 C.3     1  UNL1        0.0898
     37 C          65.3615   94.5470   10.6894 C.3     1  UNL1        0.0897
@<TRIPOS>BOND
     1    31    32    1
     2    32    33    1
     3    33    34    1
     4    34    35    1
     5    35    30    1
     6    30    29    1
     7    29    28    1
     8    28    22    1
     9    22    23   ar
    10    23    24   ar
    11    24    25   ar
    12    25    26   ar
    13    26    21    1
    14    21     1    1
    15     1     2    2
    16     1     3   am
    17     3     5    1
    18     5     6   ar
    19     6     7   ar
    20     7    10    1
    21    10    11   ar
    22    11    12   ar
    23    12    13   ar
    24    13    14   ar
    25    14    15   ar
    26    15    16   ar
    27    16    17    1
    28    16    18   ar
    29    18    19   ar
    30     7     8   ar
    31     8     9   ar
    32    26    27   ar
    33    35    36    1
    34    36    37    1
    35    37    32    1
    36    27    22   ar
    37     9     5   ar
    38    19    10   ar
    39    19    13    1
    40     3     4    1
    41    14    20    1
@<TRIPOS>MOLECULE
*****
 37 41 0 0 0
SMALL
GASTEIGER

@<TRIPOS>ATOM
      1 C          59.7636   88.2979    7.8174 C.2     1  UNL1        0.2320
      2 O          60.6310   89.1282    8.7164 O.2     1  UNL1       -0.2744
      3 N          59.9767   86.8157    7.7295 N.am    1  UNL1       -0.2639
      4 H          59.4074   86.2707    7.1395 H       1  UNL1        0.1567
      5 C          61.0572   86.1639    8.5404 C.ar    1  UNL1        0.1655
      6 N          61.0626   85.9986   10.0312 N.ar    1  UNL1       -0.2239
      7 C          62.3307   85.2955   10.4151 C.ar    1  UNL1        0.0913
      8 C          63.1092   85.0262    9.1615 C.ar    1  UNL1        0.0573
      9 S          62.3221   85.5629    8.0029 S.2     1  UNL1       -0.0508
     10 C          62.7473   84.9264   11.8081 C.ar    1  UNL1        0.0404
     11 C          63.1111   85.8853   12.9027 C.ar    1  UNL1        0.1021
     12 N          63.4619   85.0852   14.1221 N.ar    1  UNL1       -0.2269
     13 C          63.3150   83.6319   13.7810 C.ar    1  UNL1        0.1407
     14 N          63.5263   82.3852   14.5878 N.ar    1  UNL1       -0.3356
     15 C          63.2959   81.0404   13.9646 C.ar    1  UNL1        0.1035
     16 C          62.8543   80.9423   12.5344 C.ar    1  UNL1        0.1572
     17 F          62.6240   79.5974   11.9112 F       1  UNL1       -0.2026
     18 C          62.6430   82.1889   11.7276 C.ar    1  UNL1        0.0343
     19 C          62.8733   83.5338   12.3508 C.ar    1  UNL1        0.0392
     20 H          63.8161   82.4496   15.5265 H       1  UNL1        0.1675
     21 C          58.6831   88.9497    7.0065 C.3     1  UNL1        0.1118
     22 C          60.7942   91.3126    4.6169 C.ar    1  UNL1        0.1383
     23 C          59.7191   92.2162    4.0899 C.ar    1  UNL1        0.0369
     24 C          58.2987   92.0310    4.5351 C.ar    1  UNL1        0.0028
     25 C          57.9534   90.9422    5.5072 C.ar    1  UNL1       -0.0036
     26 C          59.0284   90.0385    6.0343 C.ar    1  UNL1       -0.0101
     27 C          60.4489   90.2237    5.5891 C.ar    1  UNL1        0.0331
     28 O          62.2146   91.4979    4.1717 O.3     1  UNL1       -0.4740
     29 C          62.5617   91.4085    2.7151 C.3     1  UNL1        0.2226
     30 C          62.6089   92.6521    1.8777 C.3     1  UNL1        0.1201
     31 C          57.6849   94.5235   -0.9947 C.3     1  UNL1        0.0897
     32 N          58.9158   94.0558   -0.2766 N.3     1  UNL1       -0.2691
     33 C          59.4581   92.6812   -0.5350 C.3     1  UNL1        0.0897
     34 C          60.6891   92.2134    0.1831 C.3     1  UNL1        0.0898
     35 N          61.3779   93.1200    1.1596 N.3     1  UNL1       -0.2672
     36 C          60.8357   94.4945    1.4181 C.3     1  UNL1        0.0898
     37 C          59.6046   94.9624    0.6999 C.3     1  UNL1        0.0897
@<TRIPOS>BOND
     1    31    32    1
     2    32    33    1
     3    33    34    1
     4    34    35    1
     5    35    30    1
     6    30    29    1
     7    29    28    1
     8    28    22    1
     9    22    23   ar
    10    23    24   ar
    11    24    25   ar
    12    25    26   ar
    13    26    21    1
    14    21     1    1
    15     1     2    2
    16     1     3   am
    17     3     5    1
    18     5     6   ar
    19     6     7   ar
    20     7    10    1
    21    10    11   ar
    22    11    12   ar
    23    12    13   ar
    24    13    14   ar
    25    14    15   ar
    26    15    16   ar
    27    16    17    1
    28    16    18   ar
    29    18    19   ar
    30     7     8   ar
    31     8     9   ar
    32    26    27   ar
    33    35    36    1
    34    36    37    1
    35    37    32    1
    36    27    22   ar
    37     9     5   ar
    38    19    10   ar
    39    19    13    1
    40     3     4    1
    41    14    20    1
@<TRIPOS>MOLECULE
*****
 37 41 0 0 0
SMALL
GASTEIGER

@<TRIPOS>ATOM
      1 C          59.7361   88.2725    7.8291 C.2     1  UNL1        0.2320
      2 O          60.6041   89.1148    8.7162 O.2     1  UNL1       -0.2744
      3 N          59.9582   86.7912    7.7501 N.am    1  UNL1       -0.2639
      4 H          59.3885   86.2383    7.1678 H       1  UNL1        0.1567
      5 C          61.0483   86.1522    8.5582 C.ar    1  UNL1        0.1655
      6 N          61.0568   85.9815   10.0485 N.ar    1  UNL1       -0.2239
      7 C          62.3351   85.2955   10.4294 C.ar    1  UNL1        0.0913
      8 C          63.1168   85.0420    9.1745 C.ar    1  UNL1        0.0573
      9 S          62.3216   85.5715    8.0181 S.2     1  UNL1       -0.0508
     10 C          62.7576   84.9274   11.8208 C.ar    1  UNL1        0.0404
     11 C          63.1302   85.8870   12.9119 C.ar    1  UNL1        0.1021
     12 N          63.4846   85.0878   14.1308 N.ar    1  UNL1       -0.2269
     13 C          63.3309   83.6345   13.7931 C.ar    1  UNL1        0.1407
     14 N          63.5421   82.3885   14.6011 N.ar    1  UNL1       -0.3356
     15 C          63.3040   81.0434   13.9814 C.ar    1  UNL1        0.1035
     16 C          62.8547   80.9442   12.5537 C.ar    1  UNL1        0.1572
     17 F          62.6166   79.5991   11.9341 F       1  UNL1       -0.2026
     18 C          62.6435   82.1902   11.7457 C.ar    1  UNL1        0.0343
     19 C          62.8816   83.5353   12.3654 C.ar    1  UNL1        0.0392
     20 H          63.8370   82.4535   15.5381 H       1  UNL1        0.1675
     21 C          58.6459   88.9115    7.0209 C.3     1  UNL1        0.1118
     22 C          60.7167   91.2858    4.6073 C.ar    1  UNL1        0.1383
     23 C          59.6345   92.1975    4.1096 C.ar    1  UNL1        0.0369
     24 C          58.2228   92.0139    4.5823 C.ar    1  UNL1        0.0028
     25 C          57.8933   90.9187    5.5527 C.ar    1  UNL1       -0.0036
     26 C          58.9754   90.0069    6.0505 C.ar    1  UNL1       -0.0101
     27 C          60.3871   90.1904    5.5778 C.ar    1  UNL1        0.0331
     28 O          62.1284   91.4694    4.1346 O.3     1  UNL1       -0.4740
     29 C          62.3950   92.0151    2.7630 C.3     1  UNL1        0.2226
     30 C          63.5870   92.8938    2.5242 C.3     1  UNL1        0.1201
     31 C          64.2212   95.7274   -2.7264 C.3     1  UNL1        0.0897
     32 N          64.0627   95.0190   -1.4137 N.3     1  UNL1       -0.2691
     33 C          62.8574   94.1614   -1.1650 C.3     1  UNL1        0.0897
     34 C          62.6989   93.4530    0.1475 C.3     1  UNL1        0.0898
     35 N          63.7456   93.6022    1.2115 N.3     1  UNL1       -0.2672
     36 C          64.9508   94.4598    0.9629 C.3     1  UNL1        0.0898
     37 C          65.1094   95.1682   -0.3497 C.3     1  UNL1        0.0897
@<TRIPOS>BOND
     1    31    32    1
     2    32    33    1
     3    33    34    1
     4    34    35    1
     5    35    30    1
     6    30    29    1
     7    29    28    1
     8    28    22    1
     9    22    23   ar
    10    23    24   ar
    11    24    25   ar
    12    25    26   ar
    13    26    21    1
    14    21     1    1
    15     1     2    2
    16     1     3   am
    17     3     5    1
    18     5     6   ar
    19     6     7   ar
    20     7    10    1
    21    10    11   ar
    22    11    12   ar
    23    12    13   ar
    24    13    14   ar
    25    14    15   ar
    26    15    16   ar
    27    16    17    1
    28    16    18   ar
    29    18    19   ar
    30     7     8   ar
    31     8     9   ar
    32    26    27   ar
    33    35    36    1
    34    36    37    1
    35    37    32    1
    36    27    22   ar
    37     9     5   ar
    38    19    10   ar
    39    19    13    1
    40     3     4    1
    41    14    20    1
@<TRIPOS>MOLECULE
*****
 37 41 0 0 0
SMALL
GASTEIGER

@<TRIPOS>ATOM
      1 C          59.8490   88.6568    7.9923 C.2     1  UNL1        0.2320
      2 O          60.4589   87.2899    8.0903 O.2     1  UNL1       -0.2744
      3 N          60.2262   89.7191    8.9819 N.am    1  UNL1       -0.2639
      4 H          59.8260   90.6162    8.9175 H       1  UNL1        0.1567
      5 C          61.2132   89.4144   10.0695 C.ar    1  UNL1        0.1655
      6 N          61.9006   90.4211   10.9437 N.ar    1  UNL1       -0.2239
      7 C          62.7983   89.6785   11.8884 C.ar    1  UNL1        0.0913
      8 C          62.6658   88.2128   11.5981 C.ar    1  UNL1        0.0573
      9 S          61.6862   88.0496   10.4740 S.2     1  UNL1       -0.0508
     10 C          63.6747   90.2935   12.9390 C.ar    1  UNL1        0.0404
     11 C          63.8021   89.8332   14.3609 C.ar    1  UNL1        0.1021
     12 N          64.7837   90.7320   15.0528 N.ar    1  UNL1       -0.2269
     13 C          65.2629   91.7476   14.0585 C.ar    1  UNL1        0.1407
     14 N          66.2349   92.8843   14.1739 N.ar    1  UNL1       -0.3356
     15 C          66.5215   93.7499   12.9828 C.ar    1  UNL1        0.1035
     16 C          65.8361   93.4789   11.6764 C.ar    1  UNL1        0.1572
     17 F          66.1227   94.3445   10.4853 F       1  UNL1       -0.2026
     18 C          64.8642   92.3423   11.5610 C.ar    1  UNL1        0.0343
     19 C          64.5776   91.4766   12.7520 C.ar    1  UNL1        0.0392
     20 H          66.6847   93.0621   15.0313 H       1  UNL1        0.1675
     21 C          58.8620   88.9615    6.9046 C.3     1  UNL1        0.1118
     22 C          60.7938   91.4590    4.5002 C.ar    1  UNL1        0.1383
     23 C          59.6630   92.3167    4.0146 C.ar    1  UNL1        0.0369
     24 C          58.2652   92.0559    4.4924 C.ar    1  UNL1        0.0028
     25 C          57.9982   90.9376    5.4557 C.ar    1  UNL1       -0.0036
     26 C          59.1290   90.0799    5.9413 C.ar    1  UNL1       -0.0101
     27 C          60.5268   90.3406    5.4636 C.ar    1  UNL1        0.0331
     28 O          62.1916   91.7198    4.0224 O.3     1  UNL1       -0.4740
     29 C          62.5528   91.4699    2.5882 C.3     1  UNL1        0.2226
     30 C          62.5781   92.6083    1.6118 C.3     1  UNL1        0.1201
     31 C          57.5015   94.4046   -1.0342 C.3     1  UNL1        0.0897
     32 N          58.7706   93.9556   -0.3726 N.3     1  UNL1       -0.2691
     33 C          59.3204   92.5888   -0.6546 C.3     1  UNL1        0.0897
     34 C          60.5895   92.1397    0.0069 C.3     1  UNL1        0.0898
     35 N          61.3089   93.0574    0.9504 N.3     1  UNL1       -0.2672
     36 C          60.7591   94.4243    1.2323 C.3     1  UNL1        0.0898
     37 C          59.4900   94.8734    0.5708 C.3     1  UNL1        0.0897
@<TRIPOS>BOND
     1    31    32    1
     2    32    33    1
     3    33    34    1
     4    34    35    1
     5    35    30    1
     6    30    29    1
     7    29    28    1
     8    28    22    1
     9    22    23   ar
    10    23    24   ar
    11    24    25   ar
    12    25    26   ar
    13    26    21    1
    14    21     1    1
    15     1     2    2
    16     1     3   am
    17     3     5    1
    18     5     6   ar
    19     6     7   ar
    20     7    10    1
    21    10    11   ar
    22    11    12   ar
    23    12    13   ar
    24    13    14   ar
    25    14    15   ar
    26    15    16   ar
    27    16    17    1
    28    16    18   ar
    29    18    19   ar
    30     7     8   ar
    31     8     9   ar
    32    26    27   ar
    33    35    36    1
    34    36    37    1
    35    37    32    1
    36    27    22   ar
    37     9     5   ar
    38    19    10   ar
    39    19    13    1
    40     3     4    1
    41    14    20    1
@<TRIPOS>MOLECULE
*****
 37 41 0 0 0
SMALL
GASTEIGER

@<TRIPOS>ATOM
      1 C          59.8386   88.6210    8.0323 C.2     1  UNL1        0.2320
      2 O          60.4708   87.2643    8.1305 O.2     1  UNL1       -0.2744
      3 N          60.2037   89.6916    9.0174 N.am    1  UNL1       -0.2639
      4 H          59.7888   90.5820    8.9530 H       1  UNL1        0.1567
      5 C          61.2010   89.4055   10.1006 C.ar    1  UNL1        0.1655
      6 N          61.8100   90.4154   11.0276 N.ar    1  UNL1       -0.2239
      7 C          62.7498   89.6934   11.9470 C.ar    1  UNL1        0.0913
      8 C          62.7217   88.2372   11.5884 C.ar    1  UNL1        0.0573
      9 S          61.7645   88.0593   10.4473 S.2     1  UNL1       -0.0508
     10 C          63.5732   90.3179   13.0343 C.ar    1  UNL1        0.0404
     11 C          63.5720   89.9195   14.4804 C.ar    1  UNL1        0.1021
     12 N          64.5404   90.8057   15.2062 N.ar    1  UNL1       -0.2269
     13 C          65.1400   91.7519   14.2086 C.ar    1  UNL1        0.1407
     14 N          66.1531   92.8491   14.3491 N.ar    1  UNL1       -0.3356
     15 C          66.5685   93.6448   13.1472 C.ar    1  UNL1        0.1035
     16 C          65.9708   93.3433   11.8049 C.ar    1  UNL1        0.1572
     17 F          66.3862   94.1390   10.6031 F       1  UNL1       -0.2026
     18 C          64.9577   92.2461   11.6644 C.ar    1  UNL1        0.0343
     19 C          64.5423   91.4504   12.8663 C.ar    1  UNL1        0.0392
     20 H          66.5455   93.0470   15.2301 H       1  UNL1        0.1675
     21 C          58.8413   88.9071    6.9490 C.3     1  UNL1        0.1118
     22 C          60.6976   91.4135    4.4950 C.ar    1  UNL1        0.1383
     23 C          59.5569   92.2889    4.0678 C.ar    1  UNL1        0.0369
     24 C          58.1777   92.0370    4.6010 C.ar    1  UNL1        0.0028
     25 C          57.9391   90.9098    5.5614 C.ar    1  UNL1       -0.0036
     26 C          59.0798   90.0344    5.9886 C.ar    1  UNL1       -0.0101
     27 C          60.4591   90.2862    5.4555 C.ar    1  UNL1        0.0331
     28 O          62.0768   91.6654    3.9618 O.3     1  UNL1       -0.4740
     29 C          62.2561   92.3496    2.6390 C.3     1  UNL1        0.2226
     30 C          63.6350   92.6529    2.1324 C.3     1  UNL1        0.1201
     31 C          64.3610   96.2128   -2.6425 C.3     1  UNL1        0.0897
     32 N          64.1796   95.3229   -1.4488 N.3     1  UNL1       -0.2691
     33 C          62.9723   94.4381   -1.3495 C.3     1  UNL1        0.0897
     34 C          62.7908   93.5482   -0.1558 C.3     1  UNL1        0.0898
     35 N          63.8165   93.5429    0.9387 N.3     1  UNL1       -0.2672
     36 C          65.0238   94.4276    0.8394 C.3     1  UNL1        0.0898
     37 C          65.2053   95.3176   -0.3543 C.3     1  UNL1        0.0897
@<TRIPOS>BOND
     1    31    32    1
     2    32    33    1
     3    33    34    1
     4    34    35    1
     5    35    30    1
     6    30    29    1
     7    29    28    1
     8    28    22    1
     9    22    23   ar
    10    23    24   ar
    11    24    25   ar
    12    25    26   ar
    13    26    21    1
    14    21     1    1
    15     1     2    2
    16     1     3   am
    17     3     5    1
    18     5     6   ar
    19     6     7   ar
    20     7    10    1
    21    10    11   ar
    22    11    12   ar
    23    12    13   ar
    24    13    14   ar
    25    14    15   ar
    26    15    16   ar
    27    16    17    1
    28    16    18   ar
    29    18    19   ar
    30     7     8   ar
    31     8     9   ar
    32    26    27   ar
    33    35    36    1
    34    36    37    1
    35    37    32    1
    36    27    22   ar
    37     9     5   ar
    38    19    10   ar
    39    19    13    1
    40     3     4    1
    41    14    20    1
