@<TRIPOS>MOLECULE
*****
 38 41 0 0 0
SMALL
GASTEIGER

@<TRIPOS>ATOM
      1 C          63.1298   84.2752   15.2863 C.ar    1  UNL1        0.1689
      2 N          62.7827   84.6174   16.7049 N.ar    1  UNL1       -0.1421
      3 N          62.7906   86.0484   17.1547 N.ar    1  UNL1       -0.1478
      4 C          63.1455   87.1371   16.1858 C.ar    1  UNL1        0.1041
      5 C          63.1533   88.5681   16.6355 C.ar    1  UNL1        0.0209
      6 C          63.5082   89.6568   15.6667 C.ar    1  UNL1        0.0017
      7 C          63.8553   89.3145   14.2481 C.ar    1  UNL1        0.0016
      8 C          63.8474   87.8836   13.7983 C.ar    1  UNL1        0.0029
      9 C          63.4925   86.7949   14.7672 C.ar    1  UNL1        0.0342
     10 C          63.4847   85.3639   14.3175 C.ar    1  UNL1        0.0702
     11 C          64.2102   90.4033   13.2792 C.ar    1  UNL1        0.0194
     12 C          63.5153   90.4823   11.9522 C.ar    1  UNL1        0.0063
     13 C          63.8703   91.5711   10.9833 C.ar    1  UNL1        0.0577
     14 C          64.9200   92.5809   11.3415 C.ar    1  UNL1        0.2249
     15 N          65.6148   92.5019   12.6686 N.ar    1  UNL1       -0.2101
     16 C          65.2599   91.4131   13.6374 C.ar    1  UNL1        0.1020
     17 O          65.2749   93.6696   10.3727 O.3     1  UNL1       -0.4602
     18 C          66.1816   94.7861   10.7985 C.3     1  UNL1        0.2085
     19 C          67.4569   95.0430   10.0516 C.3     1  UNL1        0.0647
     20 C          67.8847   94.1124    8.9558 C.3     1  UNL1        0.0760
     21 N          68.4712   92.7740    9.2948 N.3     1  UNL1       -0.2702
     22 C          68.4749   92.2952   10.7164 C.3     1  UNL1        0.0897
     23 C          69.0539   91.9146    8.2124 C.3     1  UNL1        0.0897
     24 C          64.3732   80.7823   13.8708 C.3     1  UNL1        0.1110
     25 N          64.3811   82.2132   14.3205 N.am    1  UNL1       -0.2978
     26 C          63.1219   82.8441   14.8366 C.2     1  UNL1        0.2666
     27 O          61.8548   82.0441   14.9030 O.2     1  UNL1       -0.2684
     28 H          65.2127   82.7383   14.2769 H       1  UNL1        0.1498
     29 N          63.8317   85.0216   12.8989 N.pl3   1  UNL1       -0.3327
     30 H          64.7709   85.0381   12.6042 H       1  UNL1        0.1468
     31 C          62.7477   84.6543   11.9292 C.3     1  UNL1        0.0692
     32 C          62.3136   83.2247   11.7958 C.3     1  UNL1        0.0212
     33 C          62.0978   85.7166   11.0931 C.3     1  UNL1        0.0229
     34 C          62.3426   85.7611    9.6139 C.3     1  UNL1        0.0338
     35 C          61.6928   86.8234    8.7777 C.3     1  UNL1        0.1422
     36 O          60.7981   87.8412    9.4207 O.3     1  UNL1       -0.3538
     37 C          60.5533   87.7968   10.9000 C.3     1  UNL1        0.1422
     38 C          61.2032   86.7345   11.7362 C.3     1  UNL1        0.0338
@<TRIPOS>BOND
     1    24    25    1
     2    25    26   am
     3    26    27    2
     4    26     1    1
     5     1     2   ar
     6     2     3   ar
     7     3     4   ar
     8     4     5   ar
     9     5     6   ar
    10     6     7   ar
    11     7    11    1
    12    11    12   ar
    13    12    13   ar
    14    13    14   ar
    15    14    17    1
    16    17    18    1
    17    18    19    1
    18    19    20    1
    19    20    21    1
    20    21    22    1
    21    21    23    1
    22    14    15   ar
    23    15    16   ar
    24     7     8   ar
    25     8     9   ar
    26     9    10   ar
    27    10    29    1
    28    29    31    1
    29    31    32    1
    30    31    33    1
    31    33    34    1
    32    34    35    1
    33    35    36    1
    34    36    37    1
    35    37    38    1
    36    10     1   ar
    37    38    33    1
    38     9     4   ar
    39    16    11   ar
    40    25    28    1
    41    29    30    1
@<TRIPOS>MOLECULE
*****
 38 41 0 0 0
SMALL
GASTEIGER

@<TRIPOS>ATOM
      1 C          66.9839   92.4905   15.3675 C.ar    1  UNL1        0.1689
      2 N          66.2845   92.3681   16.6888 N.ar    1  UNL1       -0.1421
      3 N          64.9566   91.6759   16.7733 N.ar    1  UNL1       -0.1478
      4 C          64.3279   91.1059   15.5363 C.ar    1  UNL1        0.1041
      5 C          62.9999   90.4136   15.6208 C.ar    1  UNL1        0.0209
      6 C          62.3712   89.8437   14.3839 C.ar    1  UNL1        0.0017
      7 C          63.0706   89.9661   13.0625 C.ar    1  UNL1        0.0016
      8 C          64.3986   90.6583   12.9781 C.ar    1  UNL1        0.0029
      9 C          65.0272   91.2283   14.2150 C.ar    1  UNL1        0.0342
     10 C          66.3552   91.9206   14.1306 C.ar    1  UNL1        0.0702
     11 C          62.4419   89.3961   11.8256 C.ar    1  UNL1        0.0194
     12 C          61.6041   90.2695   10.9395 C.ar    1  UNL1        0.0063
     13 C          60.9754   89.6995    9.7025 C.ar    1  UNL1        0.0577
     14 C          61.1845   88.2562    9.3518 C.ar    1  UNL1        0.2249
     15 N          62.0223   87.3828   10.2380 N.ar    1  UNL1       -0.2101
     16 C          62.6510   87.9528   11.4749 C.ar    1  UNL1        0.1020
     17 O          60.5558   87.6862    8.1149 O.3     1  UNL1       -0.4602
     18 C          59.1384   88.0318    7.7666 C.3     1  UNL1        0.2085
     19 C          58.8385   88.7851    6.5046 C.3     1  UNL1        0.0647
     20 C          59.5085   90.1006    6.2391 C.3     1  UNL1        0.0760
     21 N          58.8852   91.0820    5.2914 N.3     1  UNL1       -0.2702
     22 C          57.3937   91.1360    5.1412 C.3     1  UNL1        0.0897
     23 C          59.7533   92.0094    4.4937 C.3     1  UNL1        0.0897
     24 C          69.9263   95.0577   16.0758 C.3     1  UNL1        0.1110
     25 N          68.5983   94.3654   16.1602 N.am    1  UNL1       -0.2978
     26 C          68.3119   93.1828   15.2831 C.2     1  UNL1        0.2666
     27 O          69.3536   92.6924   14.3215 O.2     1  UNL1       -0.2684
     28 H          67.9147   94.6873   16.7913 H       1  UNL1        0.1498
     29 N          67.0546   92.0429   12.8092 N.pl3   1  UNL1       -0.3327
     30 H          67.6699   91.3348   12.5105 H       1  UNL1        0.1468
     31 C          66.8164   93.2442   11.9430 C.3     1  UNL1        0.0692
     32 C          66.0566   94.4194   12.4829 C.3     1  UNL1        0.0212
     33 C          67.3382   93.2703   10.5369 C.3     1  UNL1        0.0229
     34 C          68.1946   92.1463   10.0338 C.3     1  UNL1        0.0338
     35 C          68.7164   92.1723    8.6277 C.3     1  UNL1        0.1422
     36 O          68.3816   93.3223    7.7247 O.3     1  UNL1       -0.3538
     37 C          67.5251   94.4464    8.2278 C.3     1  UNL1        0.1422
     38 C          67.0034   94.4203    9.6339 C.3     1  UNL1        0.0338
@<TRIPOS>BOND
     1    24    25    1
     2    25    26   am
     3    26    27    2
     4    26     1    1
     5     1     2   ar
     6     2     3   ar
     7     3     4   ar
     8     4     5   ar
     9     5     6   ar
    10     6     7   ar
    11     7    11    1
    12    11    12   ar
    13    12    13   ar
    14    13    14   ar
    15    14    17    1
    16    17    18    1
    17    18    19    1
    18    19    20    1
    19    20    21    1
    20    21    22    1
    21    21    23    1
    22    14    15   ar
    23    15    16   ar
    24     7     8   ar
    25     8     9   ar
    26     9    10   ar
    27    10    29    1
    28    29    31    1
    29    31    32    1
    30    31    33    1
    31    33    34    1
    32    34    35    1
    33    35    36    1
    34    36    37    1
    35    37    38    1
    36    10     1   ar
    37    38    33    1
    38     9     4   ar
    39    16    11   ar
    40    25    28    1
    41    29    30    1
@<TRIPOS>MOLECULE
*****
 38 41 0 0 0
SMALL
GASTEIGER

@<TRIPOS>ATOM
      1 C          63.0904   82.5524   13.3820 C.ar    1  UNL1        0.1689
      2 N          63.0895   82.2712   14.8554 N.ar    1  UNL1       -0.1421
      3 N          63.3213   83.3859   15.8318 N.ar    1  UNL1       -0.1478
      4 C          63.5540   84.7820   15.3349 C.ar    1  UNL1        0.1041
      5 C          63.7857   85.8968   16.3114 C.ar    1  UNL1        0.0209
      6 C          64.0184   87.2928   15.8144 C.ar    1  UNL1        0.0017
      7 C          64.0193   87.5740   14.3410 C.ar    1  UNL1        0.0016
      8 C          63.7876   86.4592   13.3646 C.ar    1  UNL1        0.0029
      9 C          63.5549   85.0632   13.8615 C.ar    1  UNL1        0.0342
     10 C          63.3231   83.9484   12.8850 C.ar    1  UNL1        0.0702
     11 C          64.2520   88.9701   13.8441 C.ar    1  UNL1        0.0194
     12 C          63.5179   89.4677   12.6344 C.ar    1  UNL1        0.0063
     13 C          63.7506   90.8638   12.1374 C.ar    1  UNL1        0.0577
     14 C          64.7174   91.7622   12.8503 C.ar    1  UNL1        0.2249
     15 N          65.4515   91.2645   14.0600 N.ar    1  UNL1       -0.2101
     16 C          65.2188   89.8685   14.5569 C.ar    1  UNL1        0.1020
     17 O          64.9501   93.1582   12.3534 O.3     1  UNL1       -0.4602
     18 C          65.4632   93.3833   10.9620 C.3     1  UNL1        0.2085
     19 C          66.9202   93.6587   10.7352 C.3     1  UNL1        0.0647
     20 C          67.3669   94.3453    9.4787 C.3     1  UNL1        0.0760
     21 N          66.9919   95.7766    9.2321 N.3     1  UNL1       -0.2702
     22 C          67.0253   96.7655   10.3595 C.3     1  UNL1        0.0897
     23 C          66.5834   96.2189    7.8583 C.3     1  UNL1        0.0897
     24 C          63.0544   80.4767    9.9997 C.3     1  UNL1        0.1110
     25 N          63.2862   81.5915   10.9760 N.am    1  UNL1       -0.2978
     26 C          62.8587   81.4375   12.4055 C.2     1  UNL1        0.2666
     27 O          62.1994   80.1686   12.8586 O.2     1  UNL1       -0.2684
     28 H          63.7189   82.4243   10.6787 H       1  UNL1        0.1498
     29 N          63.3240   84.2296   11.4116 N.pl3   1  UNL1       -0.3327
     30 H          63.9940   83.8035   10.8296 H       1  UNL1        0.1468
     31 C          62.3041   85.1601   10.8250 C.3     1  UNL1        0.0692
     32 C          61.5307   86.0843   11.7181 C.3     1  UNL1        0.0212
     33 C          62.0577   85.1662    9.3454 C.3     1  UNL1        0.0229
     34 C          63.0629   84.5547    8.4151 C.3     1  UNL1        0.0338
     35 C          62.8164   84.5608    6.9355 C.3     1  UNL1        0.1422
     36 O          61.5648   85.1785    6.3862 O.3     1  UNL1       -0.3538
     37 C          60.5595   85.7901    7.3166 C.3     1  UNL1        0.1422
     38 C          60.8059   85.7840    8.7962 C.3     1  UNL1        0.0338
@<TRIPOS>BOND
     1    24    25    1
     2    25    26   am
     3    26    27    2
     4    26     1    1
     5     1     2   ar
     6     2     3   ar
     7     3     4   ar
     8     4     5   ar
     9     5     6   ar
    10     6     7   ar
    11     7    11    1
    12    11    12   ar
    13    12    13   ar
    14    13    14   ar
    15    14    17    1
    16    17    18    1
    17    18    19    1
    18    19    20    1
    19    20    21    1
    20    21    22    1
    21    21    23    1
    22    14    15   ar
    23    15    16   ar
    24     7     8   ar
    25     8     9   ar
    26     9    10   ar
    27    10    29    1
    28    29    31    1
    29    31    32    1
    30    31    33    1
    31    33    34    1
    32    34    35    1
    33    35    36    1
    34    36    37    1
    35    37    38    1
    36    10     1   ar
    37    38    33    1
    38     9     4   ar
    39    16    11   ar
    40    25    28    1
    41    29    30    1
@<TRIPOS>MOLECULE
*****
 38 41 0 0 0
SMALL
GASTEIGER

@<TRIPOS>ATOM
      1 C          62.7884   84.5903   14.0842 C.ar    1  UNL1        0.1689
      2 N          62.7147   84.6886   15.5792 N.ar    1  UNL1       -0.1421
      3 N          63.0312   85.9861   16.2620 N.ar    1  UNL1       -0.1478
      4 C          63.4214   87.1854   15.4499 C.ar    1  UNL1        0.1041
      5 C          63.7379   88.4829   16.1328 C.ar    1  UNL1        0.0209
      6 C          64.1281   89.6821   15.3206 C.ar    1  UNL1        0.0017
      7 C          64.2018   89.5838   13.8257 C.ar    1  UNL1        0.0016
      8 C          63.8853   88.2863   13.1428 C.ar    1  UNL1        0.0029
      9 C          63.4951   87.0871   13.9550 C.ar    1  UNL1        0.0342
     10 C          63.1786   85.7895   13.2721 C.ar    1  UNL1        0.0702
     11 C          64.5921   90.7831   13.0136 C.ar    1  UNL1        0.0194
     12 C          64.1385   90.9041   11.5889 C.ar    1  UNL1        0.0063
     13 C          64.5287   92.1034   10.7768 C.ar    1  UNL1        0.0577
     14 C          65.3725   93.1817   11.3894 C.ar    1  UNL1        0.2249
     15 N          65.8261   93.0607   12.8141 N.ar    1  UNL1       -0.2101
     16 C          65.4359   91.8614   13.6261 C.ar    1  UNL1        0.1020
     17 O          65.7627   94.3809   10.5773 O.3     1  UNL1       -0.4602
     18 C          67.2096   94.7481   10.4296 C.3     1  UNL1        0.2085
     19 C          67.7271   95.2421    9.1112 C.3     1  UNL1        0.0647
     20 C          66.8212   95.2798    7.9163 C.3     1  UNL1        0.0760
     21 N          65.7516   96.3269    7.8188 N.3     1  UNL1       -0.2702
     22 C          65.1027   96.8544    9.0641 C.3     1  UNL1        0.0897
     23 C          65.3308   96.8464    6.4761 C.3     1  UNL1        0.0897
     24 C          61.8692   80.7691   13.5337 C.3     1  UNL1        0.1110
     25 N          62.1857   82.0666   14.2166 N.am    1  UNL1       -0.2978
     26 C          62.4719   83.2928   13.4014 C.2     1  UNL1        0.2666
     27 O          62.4415   83.2215   11.9034 O.2     1  UNL1       -0.2684
     28 H          62.2056   82.1134   15.1997 H       1  UNL1        0.1498
     29 N          63.2523   85.6913   11.7772 N.pl3   1  UNL1       -0.3327
     30 H          64.0275   85.2605   11.3498 H       1  UNL1        0.1468
     31 C          62.1447   86.2494   10.9334 C.3     1  UNL1        0.0692
     32 C          61.1977   87.2590   11.5109 C.3     1  UNL1        0.0212
     33 C          61.9843   85.7978    9.5120 C.3     1  UNL1        0.0229
     34 C          60.7169   86.0982    8.7681 C.3     1  UNL1        0.0338
     35 C          60.5565   85.6466    7.3467 C.3     1  UNL1        0.1422
     36 O          61.6634   84.8945    6.6692 O.3     1  UNL1       -0.3538
     37 C          62.9309   84.5940    7.4131 C.3     1  UNL1        0.1422
     38 C          63.0913   85.0457    8.8345 C.3     1  UNL1        0.0338
@<TRIPOS>BOND
     1    24    25    1
     2    25    26   am
     3    26    27    2
     4    26     1    1
     5     1     2   ar
     6     2     3   ar
     7     3     4   ar
     8     4     5   ar
     9     5     6   ar
    10     6     7   ar
    11     7    11    1
    12    11    12   ar
    13    12    13   ar
    14    13    14   ar
    15    14    17    1
    16    17    18    1
    17    18    19    1
    18    19    20    1
    19    20    21    1
    20    21    22    1
    21    21    23    1
    22    14    15   ar
    23    15    16   ar
    24     7     8   ar
    25     8     9   ar
    26     9    10   ar
    27    10    29    1
    28    29    31    1
    29    31    32    1
    30    31    33    1
    31    33    34    1
    32    34    35    1
    33    35    36    1
    34    36    37    1
    35    37    38    1
    36    10     1   ar
    37    38    33    1
    38     9     4   ar
    39    16    11   ar
    40    25    28    1
    41    29    30    1
@<TRIPOS>MOLECULE
*****
 38 41 0 0 0
SMALL
GASTEIGER

@<TRIPOS>ATOM
      1 C          63.0570   81.7050   13.6019 C.ar    1  UNL1        0.1689
      2 N          63.6778   81.5267   14.9558 N.ar    1  UNL1       -0.1421
      3 N          64.1989   82.7173   15.7046 N.ar    1  UNL1       -0.1478
      4 C          64.0994   84.0863   15.0995 C.ar    1  UNL1        0.1041
      5 C          64.6206   85.2770   15.8483 C.ar    1  UNL1        0.0209
      6 C          64.5210   86.6459   15.2433 C.ar    1  UNL1        0.0017
      7 C          63.9003   86.8241   13.8894 C.ar    1  UNL1        0.0016
      8 C          63.3791   85.6335   13.1406 C.ar    1  UNL1        0.0029
      9 C          63.4787   84.2646   13.7457 C.ar    1  UNL1        0.0342
     10 C          62.9575   83.0739   12.9969 C.ar    1  UNL1        0.0702
     11 C          63.8007   88.1931   13.2843 C.ar    1  UNL1        0.0194
     12 C          63.0961   88.3846   11.9741 C.ar    1  UNL1        0.0063
     13 C          62.9966   89.7536   11.3691 C.ar    1  UNL1        0.0577
     14 C          63.6017   90.9311   12.0743 C.ar    1  UNL1        0.2249
     15 N          64.3064   90.7395   13.3846 N.ar    1  UNL1       -0.2101
     16 C          64.4059   89.3706   13.9896 C.ar    1  UNL1        0.1020
     17 O          63.5022   92.3000   11.4693 O.3     1  UNL1       -0.4602
     18 C          64.5048   92.7419   10.4449 C.3     1  UNL1        0.2085
     19 C          65.7441   93.4702   10.8738 C.3     1  UNL1        0.0647
     20 C          66.8842   92.7133   11.4878 C.3     1  UNL1        0.0760
     21 N          67.1179   92.7799   12.9680 N.3     1  UNL1       -0.2702
     22 C          67.9872   91.7567   13.6369 C.3     1  UNL1        0.0897
     23 C          66.4824   93.8698   13.7793 C.3     1  UNL1        0.0897
     24 C          62.5611   78.9931   10.7472 C.3     1  UNL1        0.1110
     25 N          63.0822   80.1838   11.4959 N.am    1  UNL1       -0.2978
     26 C          62.5359   80.5142   12.8531 C.2     1  UNL1        0.2666
     27 O          61.4683   79.6540   13.4617 O.2     1  UNL1       -0.2684
     28 H          63.7829   80.7484   11.0965 H       1  UNL1        0.1498
     29 N          62.3368   83.2521   11.6430 N.pl3   1  UNL1       -0.3327
     30 H          61.4071   82.9685   11.4865 H       1  UNL1        0.1468
     31 C          63.1326   83.8626   10.5276 C.3     1  UNL1        0.0692
     32 C          64.5952   83.5575   10.3955 C.3     1  UNL1        0.0212
     33 C          62.4656   84.7782    9.5442 C.3     1  UNL1        0.0229
     34 C          62.7284   84.6212    8.0758 C.3     1  UNL1        0.0338
     35 C          62.0615   85.5368    7.0925 C.3     1  UNL1        0.1422
     36 O          61.1317   86.6093    7.5776 O.3     1  UNL1       -0.3538
     37 C          60.8689   86.7662    9.0461 C.3     1  UNL1        0.1422
     38 C          61.5358   85.8507   10.0294 C.3     1  UNL1        0.0338
@<TRIPOS>BOND
     1    24    25    1
     2    25    26   am
     3    26    27    2
     4    26     1    1
     5     1     2   ar
     6     2     3   ar
     7     3     4   ar
     8     4     5   ar
     9     5     6   ar
    10     6     7   ar
    11     7    11    1
    12    11    12   ar
    13    12    13   ar
    14    13    14   ar
    15    14    17    1
    16    17    18    1
    17    18    19    1
    18    19    20    1
    19    20    21    1
    20    21    22    1
    21    21    23    1
    22    14    15   ar
    23    15    16   ar
    24     7     8   ar
    25     8     9   ar
    26     9    10   ar
    27    10    29    1
    28    29    31    1
    29    31    32    1
    30    31    33    1
    31    33    34    1
    32    34    35    1
    33    35    36    1
    34    36    37    1
    35    37    38    1
    36    10     1   ar
    37    38    33    1
    38     9     4   ar
    39    16    11   ar
    40    25    28    1
    41    29    30    1
@<TRIPOS>MOLECULE
*****
 38 41 0 0 0
SMALL
GASTEIGER

@<TRIPOS>ATOM
      1 C          66.9541   92.6711   14.2994 C.ar    1  UNL1        0.1689
      2 N          67.1886   93.8898   13.4568 N.ar    1  UNL1       -0.1421
      3 N          66.4263   94.0759   12.1785 N.ar    1  UNL1       -0.1478
      4 C          65.4293   93.0432   11.7427 C.ar    1  UNL1        0.1041
      5 C          64.6670   93.2293   10.4643 C.ar    1  UNL1        0.0209
      6 C          63.6701   92.1967   10.0286 C.ar    1  UNL1        0.0017
      7 C          63.4356   90.9781   10.8711 C.ar    1  UNL1        0.0016
      8 C          64.1979   90.7920   12.1494 C.ar    1  UNL1        0.0029
      9 C          65.1948   91.8246   12.5852 C.ar    1  UNL1        0.0342
     10 C          65.9572   91.6385   13.8636 C.ar    1  UNL1        0.0702
     11 C          62.4386   89.9455   10.4352 C.ar    1  UNL1        0.0194
     12 C          62.9083   88.5999    9.9675 C.ar    1  UNL1        0.0063
     13 C          61.9114   87.5673    9.5317 C.ar    1  UNL1        0.0577
     14 C          60.4448   87.8803    9.5635 C.ar    1  UNL1        0.2249
     15 N          59.9751   89.2260   10.0313 N.ar    1  UNL1       -0.2101
     16 C          60.9720   90.2585   10.4671 C.ar    1  UNL1        0.1020
     17 O          59.4479   86.8478    9.1277 O.3     1  UNL1       -0.4602
     18 C          58.8959   86.8798    7.7334 C.3     1  UNL1        0.2085
     19 C          59.3293   87.9534    6.7796 C.3     1  UNL1        0.0647
     20 C          58.8165   89.3535    6.9431 C.3     1  UNL1        0.0760
     21 N          58.9298   90.3307    5.8107 N.3     1  UNL1       -0.2702
     22 C          60.2768   90.6691    5.2440 C.3     1  UNL1        0.0897
     23 C          57.6961   90.9694    5.2450 C.3     1  UNL1        0.0897
     24 C          69.9672   92.1163   16.8219 C.3     1  UNL1        0.1110
     25 N          69.2049   92.3024   15.5435 N.am    1  UNL1       -0.2978
     26 C          67.7165   92.4851   15.5778 C.2     1  UNL1        0.2666
     27 O          66.9904   92.4817   16.8903 O.2     1  UNL1       -0.2684
     28 H          69.6815   92.3046   14.6821 H       1  UNL1        0.1498
     29 N          65.7227   90.4199   14.7061 N.pl3   1  UNL1       -0.3327
     30 H          66.4430   89.7601   14.8286 H       1  UNL1        0.1468
     31 C          64.3906   90.2065   15.3620 C.3     1  UNL1        0.0692
     32 C          63.5189   91.3825   15.6895 C.3     1  UNL1        0.0212
     33 C          63.9302   88.8172   15.6902 C.3     1  UNL1        0.0229
     34 C          63.1009   88.5718   16.9158 C.3     1  UNL1        0.0338
     35 C          62.6405   87.1825   17.2440 C.3     1  UNL1        0.1422
     36 O          63.0094   86.0385   16.3468 O.3     1  UNL1       -0.3538
     37 C          63.8388   86.2838   15.1212 C.3     1  UNL1        0.1422
     38 C          64.2992   87.6731   14.7929 C.3     1  UNL1        0.0338
@<TRIPOS>BOND
     1    24    25    1
     2    25    26   am
     3    26    27    2
     4    26     1    1
     5     1     2   ar
     6     2     3   ar
     7     3     4   ar
     8     4     5   ar
     9     5     6   ar
    10     6     7   ar
    11     7    11    1
    12    11    12   ar
    13    12    13   ar
    14    13    14   ar
    15    14    17    1
    16    17    18    1
    17    18    19    1
    18    19    20    1
    19    20    21    1
    20    21    22    1
    21    21    23    1
    22    14    15   ar
    23    15    16   ar
    24     7     8   ar
    25     8     9   ar
    26     9    10   ar
    27    10    29    1
    28    29    31    1
    29    31    32    1
    30    31    33    1
    31    33    34    1
    32    34    35    1
    33    35    36    1
    34    36    37    1
    35    37    38    1
    36    10     1   ar
    37    38    33    1
    38     9     4   ar
    39    16    11   ar
    40    25    28    1
    41    29    30    1
@<TRIPOS>MOLECULE
*****
 38 41 0 0 0
SMALL
GASTEIGER

@<TRIPOS>ATOM
      1 C          67.0092   92.6950   14.2757 C.ar    1  UNL1        0.1689
      2 N          67.2444   93.8764   13.3818 N.ar    1  UNL1       -0.1421
      3 N          66.4610   94.0231   12.1111 N.ar    1  UNL1       -0.1478
      4 C          65.4424   92.9884   11.7343 C.ar    1  UNL1        0.1041
      5 C          64.6590   93.1351   10.4636 C.ar    1  UNL1        0.0209
      6 C          63.6405   92.1005   10.0867 C.ar    1  UNL1        0.0017
      7 C          63.4054   90.9191   10.9806 C.ar    1  UNL1        0.0016
      8 C          64.1888   90.7723   12.2513 C.ar    1  UNL1        0.0029
      9 C          65.2073   91.8070   12.6281 C.ar    1  UNL1        0.0342
     10 C          65.9907   91.6603   13.8989 C.ar    1  UNL1        0.0702
     11 C          62.3868   89.8844   10.6037 C.ar    1  UNL1        0.0194
     12 C          62.4927   88.4927   11.1532 C.ar    1  UNL1        0.0063
     13 C          61.4741   87.4580   10.7763 C.ar    1  UNL1        0.0577
     14 C          60.3497   87.8150    9.8500 C.ar    1  UNL1        0.2249
     15 N          60.2438   89.2068    9.3005 N.ar    1  UNL1       -0.2101
     16 C          61.2624   90.2414    9.6774 C.ar    1  UNL1        0.1020
     17 O          59.3311   86.7804    9.4731 O.3     1  UNL1       -0.4602
     18 C          58.9074   86.6316    8.0419 C.3     1  UNL1        0.2085
     19 C          59.9166   86.2618    6.9955 C.3     1  UNL1        0.0647
     20 C          60.6218   84.9400    7.0676 C.3     1  UNL1        0.0760
     21 N          62.1154   84.8790    6.9433 N.3     1  UNL1       -0.2702
     22 C          62.9806   85.2231    8.1194 C.3     1  UNL1        0.0897
     23 C          62.7438   84.4739    5.6430 C.3     1  UNL1        0.0897
     24 C          70.0607   92.1943   16.7633 C.3     1  UNL1        0.1110
     25 N          69.2773   92.3410   15.4926 N.am    1  UNL1       -0.2978
     26 C          67.7927   92.5483   15.5465 C.2     1  UNL1        0.2666
     27 O          67.0915   92.6090   16.8711 O.2     1  UNL1       -0.2684
     28 H          69.7375   92.3012   14.6232 H       1  UNL1        0.1498
     29 N          65.7556   90.4789   14.7928 N.pl3   1  UNL1       -0.3327
     30 H          66.4917   89.8548   14.9876 H       1  UNL1        0.1468
     31 C          64.3990   90.2485   15.3899 C.3     1  UNL1        0.0692
     32 C          63.5084   91.4147   15.7007 C.3     1  UNL1        0.0212
     33 C          63.9330   88.8517   15.6761 C.3     1  UNL1        0.0229
     34 C          64.2942   87.7345   14.7427 C.3     1  UNL1        0.0338
     35 C          63.8282   86.3377   15.0290 C.3     1  UNL1        0.1422
     36 O          63.0010   86.0582   16.2486 O.3     1  UNL1       -0.3538
     37 C          62.6397   87.1755   17.1821 C.3     1  UNL1        0.1422
     38 C          63.1057   88.5722   16.8958 C.3     1  UNL1        0.0338
@<TRIPOS>BOND
     1    24    25    1
     2    25    26   am
     3    26    27    2
     4    26     1    1
     5     1     2   ar
     6     2     3   ar
     7     3     4   ar
     8     4     5   ar
     9     5     6   ar
    10     6     7   ar
    11     7    11    1
    12    11    12   ar
    13    12    13   ar
    14    13    14   ar
    15    14    17    1
    16    17    18    1
    17    18    19    1
    18    19    20    1
    19    20    21    1
    20    21    22    1
    21    21    23    1
    22    14    15   ar
    23    15    16   ar
    24     7     8   ar
    25     8     9   ar
    26     9    10   ar
    27    10    29    1
    28    29    31    1
    29    31    32    1
    30    31    33    1
    31    33    34    1
    32    34    35    1
    33    35    36    1
    34    36    37    1
    35    37    38    1
    36    10     1   ar
    37    38    33    1
    38     9     4   ar
    39    16    11   ar
    40    25    28    1
    41    29    30    1
@<TRIPOS>MOLECULE
*****
 38 41 0 0 0
SMALL
GASTEIGER

@<TRIPOS>ATOM
      1 C          62.6503   83.9456   11.9286 C.ar    1  UNL1        0.1689
      2 N          61.5639   84.0969   10.9055 N.ar    1  UNL1       -0.1421
      3 N          61.1842   85.4612   10.4109 N.ar    1  UNL1       -0.1478
      4 C          61.8909   86.6741   10.9395 C.ar    1  UNL1        0.1041
      5 C          61.5112   88.0384   10.4449 C.ar    1  UNL1        0.0209
      6 C          62.2180   89.2512   10.9735 C.ar    1  UNL1        0.0017
      7 C          63.3044   89.0999   11.9966 C.ar    1  UNL1        0.0016
      8 C          63.6841   87.7356   12.4912 C.ar    1  UNL1        0.0029
      9 C          62.9774   86.5228   11.9626 C.ar    1  UNL1        0.0342
     10 C          63.3570   85.1584   12.4572 C.ar    1  UNL1        0.0702
     11 C          64.0112   90.3128   12.5252 C.ar    1  UNL1        0.0194
     12 C          64.5211   90.3286   13.9357 C.ar    1  UNL1        0.0063
     13 C          65.2279   91.5415   14.4642 C.ar    1  UNL1        0.0577
     14 C          65.4246   92.7387   13.5822 C.ar    1  UNL1        0.2249
     15 N          64.9146   92.7230   12.1716 N.ar    1  UNL1       -0.2101
     16 C          64.2079   91.5100   11.6431 C.ar    1  UNL1        0.1020
     17 O          66.1313   93.9516   14.1107 O.3     1  UNL1       -0.4602
     18 C          66.6043   95.0155   13.1650 C.3     1  UNL1        0.2085
     19 C          66.1715   94.9890   11.7290 C.3     1  UNL1        0.0647
     20 C          66.6872   96.0215   10.7710 C.3     1  UNL1        0.0760
     21 N          67.2899   95.5977    9.4644 N.3     1  UNL1       -0.2702
     22 C          67.8495   94.2145    9.3101 C.3     1  UNL1        0.0897
     23 C          67.3330   96.5570    8.3121 C.3     1  UNL1        0.0897
     24 C          62.3723   80.3283   13.5375 C.3     1  UNL1        0.1110
     25 N          61.9926   81.6926   13.0430 N.am    1  UNL1       -0.2978
     26 C          63.0300   82.5812   12.4232 C.2     1  UNL1        0.2666
     27 O          64.4470   82.1056   12.2979 O.2     1  UNL1       -0.2684
     28 H          61.0625   82.0048   13.1252 H       1  UNL1        0.1498
     29 N          64.4435   85.0071   13.4803 N.pl3   1  UNL1       -0.3327
     30 H          65.3863   85.1086   13.2158 H       1  UNL1        0.1468
     31 C          64.0933   84.7009   14.9064 C.3     1  UNL1        0.0692
     32 C          64.1597   83.2890   15.4085 C.3     1  UNL1        0.0212
     33 C          63.6767   85.8067   15.8303 C.3     1  UNL1        0.0229
     34 C          63.9926   87.2317   15.4849 C.3     1  UNL1        0.0338
     35 C          63.5760   88.3375   16.4088 C.3     1  UNL1        0.1422
     36 O          62.8434   88.0183   17.6782 O.3     1  UNL1       -0.3538
     37 C          62.5274   86.5932   18.0237 C.3     1  UNL1        0.1422
     38 C          62.9440   85.4874   17.0998 C.3     1  UNL1        0.0338
@<TRIPOS>BOND
     1    24    25    1
     2    25    26   am
     3    26    27    2
     4    26     1    1
     5     1     2   ar
     6     2     3   ar
     7     3     4   ar
     8     4     5   ar
     9     5     6   ar
    10     6     7   ar
    11     7    11    1
    12    11    12   ar
    13    12    13   ar
    14    13    14   ar
    15    14    17    1
    16    17    18    1
    17    18    19    1
    18    19    20    1
    19    20    21    1
    20    21    22    1
    21    21    23    1
    22    14    15   ar
    23    15    16   ar
    24     7     8   ar
    25     8     9   ar
    26     9    10   ar
    27    10    29    1
    28    29    31    1
    29    31    32    1
    30    31    33    1
    31    33    34    1
    32    34    35    1
    33    35    36    1
    34    36    37    1
    35    37    38    1
    36    10     1   ar
    37    38    33    1
    38     9     4   ar
    39    16    11   ar
    40    25    28    1
    41    29    30    1
@<TRIPOS>MOLECULE
*****
 38 41 0 0 0
SMALL
GASTEIGER

@<TRIPOS>ATOM
      1 C          63.7406   90.8268   13.8222 C.ar    1  UNL1        0.1689
      2 N          62.9769   91.6428   12.8217 N.ar    1  UNL1       -0.1421
      3 N          62.3478   90.9766   11.6341 N.ar    1  UNL1       -0.1478
      4 C          62.4824   89.4944   11.4469 C.ar    1  UNL1        0.1041
      5 C          61.8533   88.8282   10.2594 C.ar    1  UNL1        0.0209
      6 C          61.9879   87.3461   10.0722 C.ar    1  UNL1        0.0017
      7 C          62.7516   86.5301   11.0727 C.ar    1  UNL1        0.0016
      8 C          63.3807   87.1962   12.2603 C.ar    1  UNL1        0.0029
      9 C          63.2461   88.6784   12.4474 C.ar    1  UNL1        0.0342
     10 C          63.8753   89.3446   13.6350 C.ar    1  UNL1        0.0702
     11 C          62.8862   85.0479   10.8855 C.ar    1  UNL1        0.0194
     12 C          63.4813   84.5026    9.6212 C.ar    1  UNL1        0.0063
     13 C          63.6159   83.0203    9.4340 C.ar    1  UNL1        0.0577
     14 C          63.1554   82.0835   10.5111 C.ar    1  UNL1        0.2249
     15 N          62.5603   82.6289   11.7755 N.ar    1  UNL1       -0.2101
     16 C          62.4257   84.1110   11.9626 C.ar    1  UNL1        0.1020
     17 O          63.2900   80.6013   10.3240 O.3     1  UNL1       -0.4602
     18 C          62.7518   79.6624   11.3626 C.3     1  UNL1        0.2085
     19 C          62.8429   80.0202   12.8165 C.3     1  UNL1        0.0647
     20 C          61.7593   79.5955   13.7627 C.3     1  UNL1        0.0760
     21 N          60.6983   80.5724   14.1750 N.3     1  UNL1       -0.2702
     22 C          59.2750   80.1195   14.3139 C.3     1  UNL1        0.0897
     23 C          61.0606   82.0021   14.4482 C.3     1  UNL1        0.0897
     24 C          66.4201   92.6333   16.1259 C.3     1  UNL1        0.1110
     25 N          65.7910   91.9671   14.9383 N.am    1  UNL1       -0.2978
     26 C          64.3698   91.4930   15.0098 C.2     1  UNL1        0.2666
     27 O          63.5775   91.6851   16.2690 O.2     1  UNL1       -0.2684
     28 H          66.3110   91.8410   14.1118 H       1  UNL1        0.1498
     29 N          64.6390   88.5286   14.6355 N.pl3   1  UNL1       -0.3327
     30 H          65.6232   88.5519   14.6412 H       1  UNL1        0.1468
     31 C          63.9031   87.6772   15.6273 C.3     1  UNL1        0.0692
     32 C          63.1156   88.3208   16.7298 C.3     1  UNL1        0.0212
     33 C          63.9547   86.1822   15.5165 C.3     1  UNL1        0.0229
     34 C          65.0452   85.5262   14.7225 C.3     1  UNL1        0.0338
     35 C          65.0968   84.0312   14.6117 C.3     1  UNL1        0.1422
     36 O          64.0579   83.1922   15.2948 O.3     1  UNL1       -0.3538
     37 C          62.9673   83.8482   16.0888 C.3     1  UNL1        0.1422
     38 C          62.9157   85.3432   16.1996 C.3     1  UNL1        0.0338
@<TRIPOS>BOND
     1    24    25    1
     2    25    26   am
     3    26    27    2
     4    26     1    1
     5     1     2   ar
     6     2     3   ar
     7     3     4   ar
     8     4     5   ar
     9     5     6   ar
    10     6     7   ar
    11     7    11    1
    12    11    12   ar
    13    12    13   ar
    14    13    14   ar
    15    14    17    1
    16    17    18    1
    17    18    19    1
    18    19    20    1
    19    20    21    1
    20    21    22    1
    21    21    23    1
    22    14    15   ar
    23    15    16   ar
    24     7     8   ar
    25     8     9   ar
    26     9    10   ar
    27    10    29    1
    28    29    31    1
    29    31    32    1
    30    31    33    1
    31    33    34    1
    32    34    35    1
    33    35    36    1
    34    36    37    1
    35    37    38    1
    36    10     1   ar
    37    38    33    1
    38     9     4   ar
    39    16    11   ar
    40    25    28    1
    41    29    30    1
