@<TRIPOS>MOLECULE
*****
 62 68 0 0 0
SMALL
GASTEIGER

@<TRIPOS>ATOM
      1 C          59.6425   94.2031    1.5897 C.3     1  UNL1        0.1021
      2 N          59.7089   91.1600    4.9040 N.3     1  UNL1       -0.2650
      3 C          58.4754   91.9783    4.6619 C.3     1  UNL1        0.0900
      4 C          58.4533   92.9927    3.5571 C.3     1  UNL1        0.0901
      5 N          59.6646   93.1887    2.6945 N.3     1  UNL1       -0.2621
      6 C          60.8981   92.3703    2.9366 C.3     1  UNL1        0.1510
      7 C          60.9202   91.3559    4.0414 C.3     1  UNL1        0.0980
      8 C          62.1096   92.5663    2.0740 C.2     1  UNL1        0.2386
      9 O          62.0471   92.2474    0.6096 O.2     1  UNL1       -0.2736
     10 N          63.3834   93.0811    2.6758 N.am    1  UNL1       -0.2961
     11 H          63.4245   93.2904    3.6369 H       1  UNL1        0.1497
     12 C          64.5948   93.2770    1.8131 C.3     1  UNL1        0.1939
     13 C          65.0008   94.6586    1.3928 C.3     1  UNL1        0.4154
     14 F          65.4067   96.0401    0.9726 F       1  UNL1       -0.1682
     15 F          65.3638   94.1385    0.0336 F       1  UNL1       -0.1682
     16 F          64.6377   95.1787    2.7521 F       1  UNL1       -0.1682
     17 C          61.2300   90.1971    6.0261 C.3     1  UNL1        0.0255
     18 C          59.7310   90.1456    6.0088 C.3     1  UNL1        0.1147
     19 C          58.2320   90.0941    5.9916 C.3     1  UNL1        0.0255
     20 C          59.7531   89.1312    7.1136 C.ar    1  UNL1        0.2185
     21 N          58.6529   88.1683    7.4487 N.ar    1  UNL1       -0.2094
     22 C          59.0991   87.3436    8.6194 C.ar    1  UNL1        0.1392
     23 C          60.4752   87.7968    9.0080 C.ar    1  UNL1        0.1659
     24 O          60.8794   88.9015    8.0773 O.2     1  UNL1       -0.4370
     25 C          61.3020   87.2425   10.1301 C.ar    1  UNL1        0.0362
     26 C          62.0542   88.1708   11.0370 C.ar    1  UNL1        0.0039
     27 C          62.8809   87.6165   12.1591 C.ar    1  UNL1        0.0115
     28 C          62.9555   86.1339   12.3743 C.ar    1  UNL1        0.0577
     29 CL         63.7824   85.5795   13.4965 Cl      1  UNL1       -0.0822
     30 C          62.2034   85.2056   11.4674 C.ar    1  UNL1        0.0115
     31 C          61.3767   85.7599   10.3453 C.ar    1  UNL1        0.0039
     32 C          60.3363   95.5210    1.7676 C.3     1  UNL1        0.1269
     33 O          59.7887   96.5330    2.7299 O.3     1  UNL1       -0.3830
     34 H          60.3519   97.3228    2.7238 H       1  UNL1        0.2104
     35 C          61.5777   95.8270    0.9831 C.3     1  UNL1        0.0401
     36 C          61.5743   95.6885   -0.5105 C.3     1  UNL1        0.0838
     37 C          60.3326   95.2336   -1.2187 C.2     1  UNL1        0.2227
     38 O          59.2623   96.2250   -1.5674 O.2     1  UNL1       -0.2751
     39 N          60.1613   93.7874   -1.5780 N.am    1  UNL1       -0.2999
     40 H          60.8638   93.1368   -1.3491 H       1  UNL1        0.1498
     41 C          58.9197   93.3326   -2.2862 C.3     1  UNL1        0.1278
     42 C          58.7685   93.5666   -3.7601 C.ar    1  UNL1        0.0320
     43 C          59.8589   94.2555   -4.5258 C.ar    1  UNL1        0.0004
     44 C          59.7077   94.4895   -5.9997 C.ar    1  UNL1       -0.0001
     45 C          58.4661   94.0347   -6.7078 C.ar    1  UNL1        0.0031
     46 C          57.3757   93.3458   -5.9421 C.ar    1  UNL1        0.0366
     47 C          57.5269   93.1118   -4.4683 C.ar    1  UNL1        0.1362
     48 O          56.4364   92.4229   -3.7025 O.3     1  UNL1       -0.4730
     49 C          56.5876   92.1888   -2.2286 C.3     1  UNL1        0.2364
     50 C          57.8293   92.6437   -1.5204 C.3     1  UNL1        0.1762
     51 O          57.9804   92.4096   -0.0465 O.3     1  UNL1       -0.3788
     52 H          57.1921   91.9566    0.2915 H       1  UNL1        0.2106
     53 C          62.8124   96.0048   -1.2959 C.3     1  UNL1        0.0421
     54 C          63.1091   95.2568   -2.5619 C.ar    1  UNL1        0.0078
     55 C          63.4766   93.8060   -2.6632 C.ar    1  UNL1        0.0042
     56 C          63.6850   93.4808   -4.1126 C.ar    1  UNL1        0.0253
     57 C          64.0613   92.2081   -4.8117 C.ar    1  UNL1        0.0993
     58 N          64.1989   92.1852   -6.3052 N.ar    1  UNL1       -0.2423
     59 C          63.9602   93.4349   -7.0996 C.ar    1  UNL1        0.0994
     60 C          63.5839   94.7077   -6.4006 C.ar    1  UNL1        0.0271
     61 C          63.4463   94.7306   -4.9071 C.ar    1  UNL1        0.0322
     62 S          63.0903   95.8282   -3.9486 S.2     1  UNL1       -0.0912
@<TRIPOS>BOND
     1    17    18    1
     2    18    19    1
     3    18    20    1
     4    20    21   ar
     5    21    22   ar
     6    22    23   ar
     7    23    25    1
     8    25    26   ar
     9    26    27   ar
    10    27    28   ar
    11    28    29    1
    12    28    30   ar
    13    30    31   ar
    14    23    24   ar
    15    18     2    1
    16     2     3    1
    17     3     4    1
    18     4     5    1
    19     5     1    1
    20     1    32    1
    21    32    33    1
    22    32    35    1
    23    36    35    1
    24    36    53    1
    25    53    54    1
    26    54    55   ar
    27    55    56   ar
    28    56    57   ar
    29    57    58   ar
    30    58    59   ar
    31    59    60   ar
    32    60    61   ar
    33    61    62   ar
    34    36    37    1
    35    37    38    2
    36    37    39   am
    37    41    39    1
    38    41    42    1
    39    42    43   ar
    40    43    44   ar
    41    44    45   ar
    42    45    46   ar
    43    46    47   ar
    44    47    48    1
    45    48    49    1
    46    49    50    1
    47    50    51    1
    48     5     6    1
    49     6     8    1
    50     8     9    2
    51     8    10   am
    52    10    12    1
    53    12    13    1
    54    13    14    1
    55    13    15    1
    56    13    16    1
    57     6     7    1
    58    24    20   ar
    59     7     2    1
    60    31    25   ar
    61    62    54   ar
    62    50    41    1
    63    61    56   ar
    64    47    42   ar
    65    33    34    1
    66    39    40    1
    67    51    52    1
    68    10    11    1
@<TRIPOS>MOLECULE
*****
 62 68 0 0 0
SMALL
GASTEIGER

@<TRIPOS>ATOM
      1 C          59.3936   93.6956    1.6542 C.3     1  UNL1        0.1021
      2 N          59.6287   90.8663    5.1456 N.3     1  UNL1       -0.2650
      3 C          58.3008   91.4111    4.7099 C.3     1  UNL1        0.0900
      4 C          58.2225   92.3542    3.5461 C.3     1  UNL1        0.0901
      5 N          59.4719   92.7525    2.8180 N.3     1  UNL1       -0.2621
      6 C          60.7998   92.2076    3.2538 C.3     1  UNL1        0.1510
      7 C          60.8782   91.2645    4.4176 C.3     1  UNL1        0.0980
      8 C          62.0494   92.6059    2.5257 C.2     1  UNL1        0.2386
      9 O          63.2009   91.6491    2.4335 O.2     1  UNL1       -0.2736
     10 N          62.1474   93.9609    1.8898 N.am    1  UNL1       -0.2961
     11 H          61.3916   94.5889    1.9503 H       1  UNL1        0.1497
     12 C          63.3969   94.3591    1.1618 C.3     1  UNL1        0.1939
     13 C          64.4575   95.1496    1.8692 C.3     1  UNL1        0.4154
     14 F          65.5180   95.9401    2.5766 F       1  UNL1       -0.1682
     15 F          65.3880   93.9761    1.7856 F       1  UNL1       -0.1682
     16 F          63.5270   96.3231    1.9528 F       1  UNL1       -0.1682
     17 C          58.2366   89.6526    6.1892 C.3     1  UNL1        0.0255
     18 C          59.7070   89.9232    6.3094 C.3     1  UNL1        0.1147
     19 C          61.1775   90.1937    6.4297 C.3     1  UNL1        0.0255
     20 C          59.7854   88.9801    7.4732 C.ar    1  UNL1        0.2185
     21 N          58.7201   88.0133    7.8979 N.ar    1  UNL1       -0.2094
     22 C          59.2191   87.2739    9.1038 C.ar    1  UNL1        0.1392
     23 C          60.5929   87.7836    9.4244 C.ar    1  UNL1        0.1659
     24 O          60.9429   88.8381    8.4166 O.2     1  UNL1       -0.4370
     25 C          61.4638   87.3203   10.5544 C.ar    1  UNL1        0.0362
     26 C          62.2917   88.3109   11.3181 C.ar    1  UNL1        0.0039
     27 C          63.1626   87.8476   12.4480 C.ar    1  UNL1        0.0115
     28 C          63.2056   86.3936   12.8142 C.ar    1  UNL1        0.0577
     29 CL         64.0766   85.9302   13.9442 Cl      1  UNL1       -0.0822
     30 C          62.3778   85.4030   12.0505 C.ar    1  UNL1        0.0115
     31 C          61.5069   85.8663   10.9206 C.ar    1  UNL1        0.0039
     32 C          58.9430   93.1965    0.3134 C.3     1  UNL1        0.1269
     33 O          59.3746   91.8424   -0.1666 O.3     1  UNL1       -0.3830
     34 H          58.9985   91.6758   -1.0451 H       1  UNL1        0.2104
     35 C          58.0608   94.0513   -0.5474 C.3     1  UNL1        0.0401
     36 C          58.5206   94.4658   -1.9138 C.3     1  UNL1        0.0838
     37 C          57.6916   94.1300   -3.1179 C.2     1  UNL1        0.2227
     38 O          56.7045   95.1261   -3.6505 O.2     1  UNL1       -0.2751
     39 N          57.8497   92.7981   -3.7895 N.am    1  UNL1       -0.2999
     40 H          58.4976   92.1444   -3.4400 H       1  UNL1        0.1498
     41 C          57.0208   92.4623   -4.9937 C.3     1  UNL1        0.1278
     42 C          56.0024   91.3633   -4.9204 C.ar    1  UNL1        0.0320
     43 C          55.8131   90.6002   -3.6430 C.ar    1  UNL1        0.0004
     44 C          54.7948   89.5013   -3.5697 C.ar    1  UNL1       -0.0001
     45 C          53.9659   89.1654   -4.7739 C.ar    1  UNL1        0.0031
     46 C          54.1552   89.9285   -6.0513 C.ar    1  UNL1        0.0366
     47 C          55.1735   91.0274   -6.1246 C.ar    1  UNL1        0.1362
     48 O          55.3628   91.7905   -7.4020 O.3     1  UNL1       -0.4730
     49 C          56.3811   92.8894   -7.4753 C.3     1  UNL1        0.2364
     50 C          57.2101   93.2253   -6.2711 C.3     1  UNL1        0.1762
     51 O          58.2284   94.3243   -6.3444 O.3     1  UNL1       -0.3788
     52 H          58.2227   94.7116   -7.2338 H       1  UNL1        0.2106
     53 C          59.8092   95.2162   -2.0759 C.3     1  UNL1        0.0421
     54 C          60.9200   94.6305   -2.8964 C.ar    1  UNL1        0.0078
     55 C          61.1404   94.8467   -4.3643 C.ar    1  UNL1        0.0042
     56 C          62.3620   94.0757   -4.7682 C.ar    1  UNL1        0.0253
     57 C          63.0566   93.9149   -6.0879 C.ar    1  UNL1        0.0993
     58 N          64.2859   93.0613   -6.1893 N.ar    1  UNL1       -0.2423
     59 C          64.8206   92.3686   -4.9710 C.ar    1  UNL1        0.0994
     60 C          64.1260   92.5294   -3.6512 C.ar    1  UNL1        0.0271
     61 C          62.8967   93.3830   -3.5498 C.ar    1  UNL1        0.0322
     62 S          62.0055   93.7259   -2.3930 S.2     1  UNL1       -0.0912
@<TRIPOS>BOND
     1    17    18    1
     2    18    19    1
     3    18    20    1
     4    20    21   ar
     5    21    22   ar
     6    22    23   ar
     7    23    25    1
     8    25    26   ar
     9    26    27   ar
    10    27    28   ar
    11    28    29    1
    12    28    30   ar
    13    30    31   ar
    14    23    24   ar
    15    18     2    1
    16     2     3    1
    17     3     4    1
    18     4     5    1
    19     5     1    1
    20     1    32    1
    21    32    33    1
    22    32    35    1
    23    36    35    1
    24    36    53    1
    25    53    54    1
    26    54    55   ar
    27    55    56   ar
    28    56    57   ar
    29    57    58   ar
    30    58    59   ar
    31    59    60   ar
    32    60    61   ar
    33    61    62   ar
    34    36    37    1
    35    37    38    2
    36    37    39   am
    37    41    39    1
    38    41    42    1
    39    42    43   ar
    40    43    44   ar
    41    44    45   ar
    42    45    46   ar
    43    46    47   ar
    44    47    48    1
    45    48    49    1
    46    49    50    1
    47    50    51    1
    48     5     6    1
    49     6     8    1
    50     8     9    2
    51     8    10   am
    52    10    12    1
    53    12    13    1
    54    13    14    1
    55    13    15    1
    56    13    16    1
    57     6     7    1
    58    24    20   ar
    59     7     2    1
    60    31    25   ar
    61    62    54   ar
    62    50    41    1
    63    61    56   ar
    64    47    42   ar
    65    33    34    1
    66    39    40    1
    67    51    52    1
    68    10    11    1
@<TRIPOS>MOLECULE
*****
 62 68 0 0 0
SMALL
GASTEIGER

@<TRIPOS>ATOM
      1 C          59.5987   93.2525    2.3860 C.3     1  UNL1        0.1021
      2 N          59.9722   90.4366    5.8762 N.3     1  UNL1       -0.2650
      3 C          58.6363   91.0203    5.5230 C.3     1  UNL1        0.0900
      4 C          58.5118   91.9589    4.3596 C.3     1  UNL1        0.0901
      5 N          59.7232   92.3139    3.5494 N.3     1  UNL1       -0.2621
      6 C          61.0591   91.7302    3.9026 C.3     1  UNL1        0.1510
      7 C          61.1836   90.7916    5.0660 C.3     1  UNL1        0.0980
      8 C          62.2706   92.0852    3.0923 C.2     1  UNL1        0.2386
      9 O          63.5334   91.2901    3.2437 O.2     1  UNL1       -0.2736
     10 N          62.2191   93.2353    2.1308 N.am    1  UNL1       -0.2961
     11 H          61.3903   93.7572    2.0314 H       1  UNL1        0.1497
     12 C          63.4306   93.5902    1.3206 C.3     1  UNL1        0.1939
     13 C          63.6530   95.0086    0.8859 C.3     1  UNL1        0.4154
     14 F          63.8753   96.4269    0.4512 F       1  UNL1       -0.1682
     15 F          64.6406   94.5391   -0.1408 F       1  UNL1       -0.1682
     16 F          62.6654   95.4781    1.9126 F       1  UNL1       -0.1682
     17 C          59.0320   88.6229    6.4474 C.3     1  UNL1        0.0255
     18 C          60.0967   89.4980    7.0396 C.3     1  UNL1        0.1147
     19 C          61.1613   90.3732    7.6317 C.3     1  UNL1        0.0255
     20 C          60.2212   88.5594    8.2030 C.ar    1  UNL1        0.2185
     21 N          59.2613   88.4447    9.3499 N.ar    1  UNL1       -0.2094
     22 C          59.7743   87.3851   10.2795 C.ar    1  UNL1        0.1392
     23 C          61.0512   86.8449    9.7071 C.ar    1  UNL1        0.1659
     24 O          61.3273   87.5707    8.4237 O.2     1  UNL1       -0.4370
     25 C          61.9024   85.7680   10.3118 C.ar    1  UNL1        0.0362
     26 C          62.7794   84.9242    9.4349 C.ar    1  UNL1        0.0039
     27 C          63.6307   83.8474   10.0397 C.ar    1  UNL1        0.0115
     28 C          63.6049   83.6144   11.5212 C.ar    1  UNL1        0.0577
     29 CL         64.4562   82.5374   12.1260 Cl      1  UNL1       -0.0822
     30 C          62.7279   84.4582   12.3981 C.ar    1  UNL1        0.0115
     31 C          61.8767   85.5350   11.7933 C.ar    1  UNL1        0.0039
     32 C          59.3706   92.7105    1.0061 C.3     1  UNL1        0.1269
     33 O          60.1048   91.4840    0.5511 O.3     1  UNL1       -0.3830
     34 H          59.8440   91.2698   -0.3583 H       1  UNL1        0.2104
     35 C          58.4083   93.3948    0.0811 C.3     1  UNL1        0.0401
     36 C          58.8935   94.4727   -0.8425 C.3     1  UNL1        0.0838
     37 C          58.0075   94.9696   -1.9462 C.2     1  UNL1        0.2227
     38 O          58.1750   96.3644   -2.4719 O.2     1  UNL1       -0.2751
     39 N          56.9541   94.0717   -2.5241 N.am    1  UNL1       -0.2999
     40 H          56.8442   93.1562   -2.1790 H       1  UNL1        0.1498
     41 C          56.0681   94.5686   -3.6277 C.3     1  UNL1        0.1278
     42 C          54.7851   95.2732   -3.2999 C.ar    1  UNL1        0.0320
     43 C          54.3881   95.4809   -1.8684 C.ar    1  UNL1        0.0004
     44 C          53.1051   96.1855   -1.5406 C.ar    1  UNL1       -0.0001
     45 C          52.2191   96.6824   -2.6443 C.ar    1  UNL1        0.0031
     46 C          52.6161   96.4747   -4.0758 C.ar    1  UNL1        0.0366
     47 C          53.8991   95.7701   -4.4036 C.ar    1  UNL1        0.1362
     48 O          54.2961   95.5623   -5.8351 O.3     1  UNL1       -0.4730
     49 C          55.5791   94.8577   -6.1629 C.3     1  UNL1        0.2364
     50 C          56.4650   94.3608   -5.0592 C.3     1  UNL1        0.1762
     51 O          57.7481   93.6562   -5.3871 O.3     1  UNL1       -0.3788
     52 H          57.8525   93.6061   -6.3502 H       1  UNL1        0.2106
     53 C          60.2646   95.0536   -0.6623 C.3     1  UNL1        0.0421
     54 C          61.3444   94.7505   -1.6584 C.ar    1  UNL1        0.0078
     55 C          61.8734   93.3886   -1.9984 C.ar    1  UNL1        0.0042
     56 C          62.9407   93.5525   -3.0395 C.ar    1  UNL1        0.0253
     57 C          63.8105   92.5585   -3.7504 C.ar    1  UNL1        0.0993
     58 N          64.8109   93.0276   -4.7648 N.ar    1  UNL1       -0.2423
     59 C          64.9416   94.4907   -5.0683 C.ar    1  UNL1        0.0994
     60 C          64.0718   95.4848   -4.3574 C.ar    1  UNL1        0.0271
     61 C          63.0714   95.0157   -3.3430 C.ar    1  UNL1        0.0322
     62 S          62.0848   95.7561   -2.4895 S.2     1  UNL1       -0.0912
@<TRIPOS>BOND
     1    17    18    1
     2    18    19    1
     3    18    20    1
     4    20    21   ar
     5    21    22   ar
     6    22    23   ar
     7    23    25    1
     8    25    26   ar
     9    26    27   ar
    10    27    28   ar
    11    28    29    1
    12    28    30   ar
    13    30    31   ar
    14    23    24   ar
    15    18     2    1
    16     2     3    1
    17     3     4    1
    18     4     5    1
    19     5     1    1
    20     1    32    1
    21    32    33    1
    22    32    35    1
    23    36    35    1
    24    36    53    1
    25    53    54    1
    26    54    55   ar
    27    55    56   ar
    28    56    57   ar
    29    57    58   ar
    30    58    59   ar
    31    59    60   ar
    32    60    61   ar
    33    61    62   ar
    34    36    37    1
    35    37    38    2
    36    37    39   am
    37    41    39    1
    38    41    42    1
    39    42    43   ar
    40    43    44   ar
    41    44    45   ar
    42    45    46   ar
    43    46    47   ar
    44    47    48    1
    45    48    49    1
    46    49    50    1
    47    50    51    1
    48     5     6    1
    49     6     8    1
    50     8     9    2
    51     8    10   am
    52    10    12    1
    53    12    13    1
    54    13    14    1
    55    13    15    1
    56    13    16    1
    57     6     7    1
    58    24    20   ar
    59     7     2    1
    60    31    25   ar
    61    62    54   ar
    62    50    41    1
    63    61    56   ar
    64    47    42   ar
    65    33    34    1
    66    39    40    1
    67    51    52    1
    68    10    11    1
@<TRIPOS>MOLECULE
*****
 62 68 0 0 0
SMALL
GASTEIGER

@<TRIPOS>ATOM
      1 C          59.7518   94.1822    1.2111 C.3     1  UNL1        0.1021
      2 N          59.7569   91.2798    4.6500 N.3     1  UNL1       -0.2650
      3 C          58.4910   91.9880    4.2682 C.3     1  UNL1        0.0900
      4 C          58.4893   92.9554    3.1219 C.3     1  UNL1        0.0901
      5 N          59.7535   93.2147    2.3574 N.3     1  UNL1       -0.2621
      6 C          61.0194   92.5066    2.7393 C.3     1  UNL1        0.1510
      7 C          61.0211   91.5391    3.8856 C.3     1  UNL1        0.0980
      8 C          62.2837   92.7658    1.9748 C.2     1  UNL1        0.2386
      9 O          62.3586   92.4329    0.5141 O.2     1  UNL1       -0.2736
     10 N          63.4731   93.3579    2.6710 N.am    1  UNL1       -0.2961
     11 H          63.4240   93.5764    3.6297 H       1  UNL1        0.1497
     12 C          64.7373   93.6172    1.9065 C.3     1  UNL1        0.1939
     13 C          65.1766   95.0263    1.6391 C.3     1  UNL1        0.4154
     14 F          65.6159   96.4354    1.3718 F       1  UNL1       -0.1682
     15 F          64.6033   95.4552    2.9572 F       1  UNL1       -0.1682
     16 F          65.7500   94.5975    0.3211 F       1  UNL1       -0.1682
     17 C          58.2723   90.4656    5.9279 C.3     1  UNL1        0.0255
     18 C          59.7586   90.3123    5.7963 C.3     1  UNL1        0.1147
     19 C          61.2449   90.1591    5.6648 C.3     1  UNL1        0.0255
     20 C          59.7603   89.3449    6.9426 C.ar    1  UNL1        0.2185
     21 N          58.6421   88.4170    7.3149 N.ar    1  UNL1       -0.2094
     22 C          59.0712   87.6341    8.5203 C.ar    1  UNL1        0.1392
     23 C          60.4547   88.0781    8.8930 C.ar    1  UNL1        0.1659
     24 O          60.8805   89.1354    7.9179 O.2     1  UNL1       -0.4370
     25 C          61.2692   87.5564   10.0394 C.ar    1  UNL1        0.0362
     26 C          62.0961   88.4993   10.8624 C.ar    1  UNL1        0.0039
     27 C          62.9106   87.9776   12.0087 C.ar    1  UNL1        0.0115
     28 C          62.8984   86.5129   12.3322 C.ar    1  UNL1        0.0577
     29 CL         63.7130   85.9912   13.4786 Cl      1  UNL1       -0.0822
     30 C          62.0715   85.5700   11.5092 C.ar    1  UNL1        0.0115
     31 C          61.2570   86.0917   10.3628 C.ar    1  UNL1        0.0039
     32 C          60.2294   95.5892    1.4165 C.3     1  UNL1        0.1269
     33 O          59.3457   96.5887    2.1022 O.3     1  UNL1       -0.3830
     34 H          59.8026   97.4429    2.1532 H       1  UNL1        0.2104
     35 C          61.5907   95.9967    0.9361 C.3     1  UNL1        0.0401
     36 C          61.9001   95.9940   -0.5317 C.3     1  UNL1        0.0838
     37 C          60.7976   95.7996   -1.5301 C.2     1  UNL1        0.2227
     38 O          59.7464   96.8559   -1.7018 O.2     1  UNL1       -0.2751
     39 N          60.7463   94.5491   -2.3568 N.am    1  UNL1       -0.2999
     40 H          61.4362   93.8558   -2.2441 H       1  UNL1        0.1498
     41 C          59.6439   94.3547   -3.3552 C.3     1  UNL1        0.1278
     42 C          58.4231   93.5676   -2.9808 C.ar    1  UNL1        0.0320
     43 C          58.3048   92.9748   -1.6080 C.ar    1  UNL1        0.0004
     44 C          57.0840   92.1877   -1.2336 C.ar    1  UNL1       -0.0001
     45 C          55.9816   91.9934   -2.2320 C.ar    1  UNL1        0.0031
     46 C          56.0999   92.5861   -3.6048 C.ar    1  UNL1        0.0366
     47 C          57.3206   93.3732   -3.9792 C.ar    1  UNL1        0.1362
     48 O          57.4390   93.9660   -5.3520 O.3     1  UNL1       -0.4730
     49 C          58.6597   94.7531   -5.7264 C.3     1  UNL1        0.2364
     50 C          59.7622   94.9475   -4.7280 C.3     1  UNL1        0.1762
     51 O          60.9830   95.7346   -5.1024 O.3     1  UNL1       -0.3788
     52 H          60.8997   96.0445   -6.0178 H       1  UNL1        0.2106
     53 C          63.3118   96.1856   -1.0010 C.3     1  UNL1        0.0421
     54 C          63.7938   95.4825   -2.2353 C.ar    1  UNL1        0.0078
     55 C          64.2642   96.1411   -3.4982 C.ar    1  UNL1        0.0042
     56 C          64.6511   95.0632   -4.4669 C.ar    1  UNL1        0.0253
     57 C          65.1842   95.1167   -5.8679 C.ar    1  UNL1        0.0993
     58 N          65.4860   93.8455   -6.6047 N.ar    1  UNL1       -0.2423
     59 C          65.2547   92.5206   -5.9404 C.ar    1  UNL1        0.0994
     60 C          64.7216   92.4670   -4.5393 C.ar    1  UNL1        0.0271
     61 C          64.4198   93.7383   -3.8025 C.ar    1  UNL1        0.0322
     62 S          63.8900   93.9975   -2.4234 S.2     1  UNL1       -0.0912
@<TRIPOS>BOND
     1    17    18    1
     2    18    19    1
     3    18    20    1
     4    20    21   ar
     5    21    22   ar
     6    22    23   ar
     7    23    25    1
     8    25    26   ar
     9    26    27   ar
    10    27    28   ar
    11    28    29    1
    12    28    30   ar
    13    30    31   ar
    14    23    24   ar
    15    18     2    1
    16     2     3    1
    17     3     4    1
    18     4     5    1
    19     5     1    1
    20     1    32    1
    21    32    33    1
    22    32    35    1
    23    36    35    1
    24    36    53    1
    25    53    54    1
    26    54    55   ar
    27    55    56   ar
    28    56    57   ar
    29    57    58   ar
    30    58    59   ar
    31    59    60   ar
    32    60    61   ar
    33    61    62   ar
    34    36    37    1
    35    37    38    2
    36    37    39   am
    37    41    39    1
    38    41    42    1
    39    42    43   ar
    40    43    44   ar
    41    44    45   ar
    42    45    46   ar
    43    46    47   ar
    44    47    48    1
    45    48    49    1
    46    49    50    1
    47    50    51    1
    48     5     6    1
    49     6     8    1
    50     8     9    2
    51     8    10   am
    52    10    12    1
    53    12    13    1
    54    13    14    1
    55    13    15    1
    56    13    16    1
    57     6     7    1
    58    24    20   ar
    59     7     2    1
    60    31    25   ar
    61    62    54   ar
    62    50    41    1
    63    61    56   ar
    64    47    42   ar
    65    33    34    1
    66    39    40    1
    67    51    52    1
    68    10    11    1
@<TRIPOS>MOLECULE
*****
 62 68 0 0 0
SMALL
GASTEIGER

@<TRIPOS>ATOM
      1 C          59.3184   87.2297    9.2233 C.3     1  UNL1        0.1021
      2 N          59.8981   90.2194    5.9103 N.3     1  UNL1       -0.2650
      3 C          59.4429   88.8260    5.5920 C.3     1  UNL1        0.0900
      4 C          59.2496   87.8295    6.6963 C.3     1  UNL1        0.0901
      5 N          59.5116   88.2263    8.1190 N.3     1  UNL1       -0.2621
      6 C          59.9669   89.6196    8.4372 C.3     1  UNL1        0.1510
      7 C          60.1601   90.6162    7.3329 C.3     1  UNL1        0.0980
      8 C          60.2289   90.0165    9.8599 C.2     1  UNL1        0.2386
      9 O          61.5550   90.6038   10.2426 O.2     1  UNL1       -0.2736
     10 N          59.1648   89.8260   10.8998 N.am    1  UNL1       -0.2961
     11 H          58.2945   89.4405   10.6486 H       1  UNL1        0.1497
     12 C          59.4269   90.2228   12.3224 C.3     1  UNL1        0.1939
     13 C          58.9320   89.3598   13.4451 C.3     1  UNL1        0.4154
     14 F          58.4373   88.4969   14.5678 F       1  UNL1       -0.1682
     15 F          57.6542   89.1194   12.6972 F       1  UNL1       -0.1682
     16 F          60.2098   89.6002   14.1930 F       1  UNL1       -0.1682
     17 C          61.5358   90.8243    4.7053 C.3     1  UNL1        0.0255
     18 C          60.0914   91.2159    4.8060 C.3     1  UNL1        0.1147
     19 C          58.6469   91.6075    4.9066 C.3     1  UNL1        0.0255
     20 C          60.2846   92.2125    3.7016 C.ar    1  UNL1        0.2185
     21 N          59.2050   93.0192    3.0431 N.ar    1  UNL1       -0.2094
     22 C          59.8445   93.8826    1.9964 C.ar    1  UNL1        0.1392
     23 C          61.3194   93.6095    2.0080 C.ar    1  UNL1        0.1659
     24 O          61.5914   92.5773    3.0619 O.2     1  UNL1       -0.4370
     25 C          62.3427   94.2552    1.1215 C.ar    1  UNL1        0.0362
     26 C          63.6160   93.5322    0.7956 C.ar    1  UNL1        0.0039
     27 C          64.6391   94.1780   -0.0910 C.ar    1  UNL1        0.0115
     28 C          64.3891   95.5466   -0.6516 C.ar    1  UNL1        0.0577
     29 CL         65.4124   96.1923   -1.5382 Cl      1  UNL1       -0.0822
     30 C          63.1159   96.2695   -0.3257 C.ar    1  UNL1        0.0115
     31 C          62.0927   95.6238    0.5608 C.ar    1  UNL1        0.0039
     32 C          60.5091   86.5836    9.8673 C.3     1  UNL1        0.1269
     33 O          61.1815   85.4191    9.2025 O.3     1  UNL1       -0.3830
     34 H          61.9280   85.1231    9.7466 H       1  UNL1        0.2104
     35 C          61.0273   87.1019   11.1760 C.3     1  UNL1        0.0401
     36 C          62.4557   86.8605   11.5655 C.3     1  UNL1        0.0838
     37 C          63.1596   87.8269   12.4714 C.2     1  UNL1        0.2227
     38 O          64.0495   87.3169   13.5659 O.2     1  UNL1       -0.2751
     39 N          62.9736   89.3033   12.2827 N.am    1  UNL1       -0.2999
     40 H          62.3895   89.6380   11.5643 H       1  UNL1        0.1498
     41 C          63.6775   90.2697   13.1885 C.3     1  UNL1        0.1278
     42 C          64.4925   91.3862   12.6060 C.ar    1  UNL1        0.0320
     43 C          64.6035   91.5363   11.1177 C.ar    1  UNL1        0.0004
     44 C          65.4185   92.6527   10.5352 C.ar    1  UNL1       -0.0001
     45 C          66.1224   93.6192   11.4410 C.ar    1  UNL1        0.0031
     46 C          66.0113   93.4691   12.9293 C.ar    1  UNL1        0.0366
     47 C          65.1964   92.3527   13.5118 C.ar    1  UNL1        0.1362
     48 O          65.0853   92.2026   15.0002 O.3     1  UNL1       -0.4730
     49 C          64.2704   91.0861   15.5827 C.3     1  UNL1        0.2364
     50 C          63.5665   90.1197   14.6768 C.3     1  UNL1        0.1762
     51 O          62.7515   89.0032   15.2594 O.3     1  UNL1       -0.3788
     52 H          62.7845   89.0499   16.2277 H       1  UNL1        0.2106
     53 C          63.1800   85.6527   11.0493 C.3     1  UNL1        0.0421
     54 C          62.9640   84.3159   11.6945 C.ar    1  UNL1        0.0078
     55 C          62.5106   84.0805   13.1048 C.ar    1  UNL1        0.0042
     56 C          62.4298   82.5989   13.3246 C.ar    1  UNL1        0.0253
     57 C          62.0410   81.7814   14.5206 C.ar    1  UNL1        0.0993
     58 N          62.0556   80.2835   14.4421 N.ar    1  UNL1       -0.2423
     59 C          62.4591   79.6032   13.1676 C.ar    1  UNL1        0.0994
     60 C          62.8479   80.4207   11.9715 C.ar    1  UNL1        0.0271
     61 C          62.8333   81.9186   12.0500 C.ar    1  UNL1        0.0322
     62 S          63.1634   82.9797   11.0426 S.2     1  UNL1       -0.0912
@<TRIPOS>BOND
     1    17    18    1
     2    18    19    1
     3    18    20    1
     4    20    21   ar
     5    21    22   ar
     6    22    23   ar
     7    23    25    1
     8    25    26   ar
     9    26    27   ar
    10    27    28   ar
    11    28    29    1
    12    28    30   ar
    13    30    31   ar
    14    23    24   ar
    15    18     2    1
    16     2     3    1
    17     3     4    1
    18     4     5    1
    19     5     1    1
    20     1    32    1
    21    32    33    1
    22    32    35    1
    23    36    35    1
    24    36    53    1
    25    53    54    1
    26    54    55   ar
    27    55    56   ar
    28    56    57   ar
    29    57    58   ar
    30    58    59   ar
    31    59    60   ar
    32    60    61   ar
    33    61    62   ar
    34    36    37    1
    35    37    38    2
    36    37    39   am
    37    41    39    1
    38    41    42    1
    39    42    43   ar
    40    43    44   ar
    41    44    45   ar
    42    45    46   ar
    43    46    47   ar
    44    47    48    1
    45    48    49    1
    46    49    50    1
    47    50    51    1
    48     5     6    1
    49     6     8    1
    50     8     9    2
    51     8    10   am
    52    10    12    1
    53    12    13    1
    54    13    14    1
    55    13    15    1
    56    13    16    1
    57     6     7    1
    58    24    20   ar
    59     7     2    1
    60    31    25   ar
    61    62    54   ar
    62    50    41    1
    63    61    56   ar
    64    47    42   ar
    65    33    34    1
    66    39    40    1
    67    51    52    1
    68    10    11    1
@<TRIPOS>MOLECULE
*****
 62 68 0 0 0
SMALL
GASTEIGER

@<TRIPOS>ATOM
      1 C          61.3534   87.1480   12.1443 C.3     1  UNL1        0.1021
      2 N          60.1634   89.2476    8.3462 N.3     1  UNL1       -0.2650
      3 C          59.6891   87.8493    8.6105 C.3     1  UNL1        0.0900
      4 C          60.0858   87.1495    9.8765 C.3     1  UNL1        0.0901
      5 N          60.9567   87.8479   10.8783 N.3     1  UNL1       -0.2621
      6 C          61.4310   89.2461   10.6141 C.3     1  UNL1        0.1510
      7 C          61.0343   89.9460    9.3480 C.3     1  UNL1        0.0980
      8 C          62.3020   89.9446   11.6159 C.2     1  UNL1        0.2386
      9 O          62.1097   89.6922   13.0820 O.2     1  UNL1       -0.2736
     10 N          63.3651   90.8954   11.1516 N.am    1  UNL1       -0.2961
     11 H          63.4913   91.0611   10.1894 H       1  UNL1        0.1497
     12 C          64.2360   91.5938   12.1535 C.3     1  UNL1        0.1939
     13 C          65.3358   92.5015   11.6877 C.3     1  UNL1        0.4154
     14 F          66.4354   93.4091   11.2219 F       1  UNL1       -0.1682
     15 F          65.3347   91.8177   10.3526 F       1  UNL1       -0.1682
     16 F          65.3368   93.1853   13.0227 F       1  UNL1       -0.1682
     17 C          60.9569   90.8515    7.2071 C.3     1  UNL1        0.0255
     18 C          59.7667   89.9474    7.0802 C.3     1  UNL1        0.1147
     19 C          58.5766   89.0434    6.9533 C.3     1  UNL1        0.0255
     20 C          59.3701   90.6473    5.8141 C.ar    1  UNL1        0.2185
     21 N          57.9676   90.8615    5.3273 N.ar    1  UNL1       -0.2094
     22 C          58.0370   91.6024    4.0249 C.ar    1  UNL1        0.1392
     23 C          59.4824   91.8462    3.7068 C.ar    1  UNL1        0.1659
     24 O          60.3063   91.2559    4.8126 O.2     1  UNL1       -0.4370
     25 C          60.0112   92.5557    2.4956 C.ar    1  UNL1        0.0362
     26 C          61.4788   92.8416    2.3749 C.ar    1  UNL1        0.0039
     27 C          62.0074   93.5510    1.1637 C.ar    1  UNL1        0.0115
     28 C          61.0686   93.9746    0.0732 C.ar    1  UNL1        0.0577
     29 CL         61.5973   94.6842   -1.1381 Cl      1  UNL1       -0.0822
     30 C          59.6010   93.6888    0.1940 C.ar    1  UNL1        0.0115
     31 C          59.0724   92.9793    1.4051 C.ar    1  UNL1        0.0039
     32 C          62.4632   86.1391   12.1275 C.3     1  UNL1        0.1269
     33 O          62.1886   84.7291   11.6958 O.3     1  UNL1       -0.3830
     34 H          63.0074   84.2112   11.7429 H       1  UNL1        0.2104
     35 C          63.8478   86.5403   12.5424 C.3     1  UNL1        0.0401
     36 C          64.2486   86.4681   13.9861 C.3     1  UNL1        0.0838
     37 C          64.2073   87.7017   14.8385 C.2     1  UNL1        0.2227
     38 O          63.6603   87.6314   16.2335 O.2     1  UNL1       -0.2751
     39 N          64.7129   89.0055   14.2959 N.am    1  UNL1       -0.2999
     40 H          65.0718   89.0516   13.3804 H       1  UNL1        0.1498
     41 C          64.6716   90.2391   15.1483 C.3     1  UNL1        0.1278
     42 C          65.8607   91.1517   15.2050 C.ar    1  UNL1        0.0320
     43 C          67.0910   90.8308   14.4092 C.ar    1  UNL1        0.0004
     44 C          68.2800   91.7435   14.4659 C.ar    1  UNL1       -0.0001
     45 C          68.2387   92.9770   15.3183 C.ar    1  UNL1        0.0031
     46 C          67.0084   93.2980   16.1140 C.ar    1  UNL1        0.0366
     47 C          65.8194   92.3853   16.0574 C.ar    1  UNL1        0.1362
     48 O          64.5889   92.7062   16.8531 O.3     1  UNL1       -0.4730
     49 C          63.3999   91.7936   16.7965 C.3     1  UNL1        0.2364
     50 C          63.4412   90.5600   15.9441 C.3     1  UNL1        0.1762
     51 O          62.2521   89.6473   15.8874 O.3     1  UNL1       -0.3788
     52 H          61.5482   89.9978   16.4554 H       1  UNL1        0.2106
     53 C          64.6907   85.1624   14.5774 C.3     1  UNL1        0.0421
     54 C          63.9832   83.8929   14.2058 C.ar    1  UNL1        0.0078
     55 C          64.3873   82.9450   13.1157 C.ar    1  UNL1        0.0042
     56 C          63.4013   81.8148   13.0952 C.ar    1  UNL1        0.0253
     57 C          63.2953   80.5907   12.2347 C.ar    1  UNL1        0.0993
     58 N          62.1759   79.6161   12.4516 N.ar    1  UNL1       -0.2423
     59 C          61.1625   79.8655   13.5290 C.ar    1  UNL1        0.0994
     60 C          61.2684   81.0896   14.3895 C.ar    1  UNL1        0.0271
     61 C          62.3878   82.0642   14.1726 C.ar    1  UNL1        0.0322
     62 S          62.7475   83.3486   14.8590 S.2     1  UNL1       -0.0912
@<TRIPOS>BOND
     1    17    18    1
     2    18    19    1
     3    18    20    1
     4    20    21   ar
     5    21    22   ar
     6    22    23   ar
     7    23    25    1
     8    25    26   ar
     9    26    27   ar
    10    27    28   ar
    11    28    29    1
    12    28    30   ar
    13    30    31   ar
    14    23    24   ar
    15    18     2    1
    16     2     3    1
    17     3     4    1
    18     4     5    1
    19     5     1    1
    20     1    32    1
    21    32    33    1
    22    32    35    1
    23    36    35    1
    24    36    53    1
    25    53    54    1
    26    54    55   ar
    27    55    56   ar
    28    56    57   ar
    29    57    58   ar
    30    58    59   ar
    31    59    60   ar
    32    60    61   ar
    33    61    62   ar
    34    36    37    1
    35    37    38    2
    36    37    39   am
    37    41    39    1
    38    41    42    1
    39    42    43   ar
    40    43    44   ar
    41    44    45   ar
    42    45    46   ar
    43    46    47   ar
    44    47    48    1
    45    48    49    1
    46    49    50    1
    47    50    51    1
    48     5     6    1
    49     6     8    1
    50     8     9    2
    51     8    10   am
    52    10    12    1
    53    12    13    1
    54    13    14    1
    55    13    15    1
    56    13    16    1
    57     6     7    1
    58    24    20   ar
    59     7     2    1
    60    31    25   ar
    61    62    54   ar
    62    50    41    1
    63    61    56   ar
    64    47    42   ar
    65    33    34    1
    66    39    40    1
    67    51    52    1
    68    10    11    1
@<TRIPOS>MOLECULE
*****
 62 68 0 0 0
SMALL
GASTEIGER

@<TRIPOS>ATOM
      1 C          59.7247   87.6587    9.4966 C.3     1  UNL1        0.1021
      2 N          59.6749   90.4452    5.9635 N.3     1  UNL1       -0.2650
      3 C          58.9967   89.1103    5.8754 C.3     1  UNL1        0.0900
      4 C          59.0133   88.1814    7.0531 C.3     1  UNL1        0.0901
      5 N          59.7081   88.5875    8.3189 N.3     1  UNL1       -0.2621
      6 C          60.3864   89.9225    8.4070 C.3     1  UNL1        0.1510
      7 C          60.3698   90.8514    7.2293 C.3     1  UNL1        0.0980
      8 C          61.0813   90.3287    9.6728 C.2     1  UNL1        0.2386
      9 O          60.2775   90.7087   10.8809 O.2     1  UNL1       -0.2736
     10 N          62.5799   90.3548    9.7305 N.am    1  UNL1       -0.2961
     11 H          63.1075   90.1053    8.9375 H       1  UNL1        0.1497
     12 C          63.2748   90.7609   10.9962 C.3     1  UNL1        0.1939
     13 C          64.1183   92.0010   11.0240 C.3     1  UNL1        0.4154
     14 F          64.9619   93.2410   11.0518 F       1  UNL1       -0.1682
     15 F          63.6267   92.3045   12.4083 F       1  UNL1       -0.1682
     16 F          64.6100   91.6975    9.6398 F       1  UNL1       -0.1682
     17 C          58.1757   91.5422    4.9393 C.3     1  UNL1        0.0255
     18 C          59.6583   91.3741    4.7858 C.3     1  UNL1        0.1147
     19 C          61.1410   91.2060    4.6324 C.3     1  UNL1        0.0255
     20 C          59.6417   92.3029    3.6081 C.ar    1  UNL1        0.2185
     21 N          59.9756   93.7651    3.6336 N.ar    1  UNL1       -0.2094
     22 C          59.8285   94.2986    2.2394 C.ar    1  UNL1        0.1392
     23 C          59.4038   93.1661    1.3522 C.ar    1  UNL1        0.1659
     24 O          59.2884   91.9328    2.1981 O.2     1  UNL1       -0.4370
     25 C          59.1407   93.2519   -0.1220 C.ar    1  UNL1        0.0362
     26 C          57.7431   93.0989   -0.6447 C.ar    1  UNL1        0.0039
     27 C          57.4801   93.1846   -2.1189 C.ar    1  UNL1        0.0115
     28 C          58.6147   93.4234   -3.0705 C.ar    1  UNL1        0.0577
     29 CL         58.3516   93.5092   -4.5448 Cl      1  UNL1       -0.0822
     30 C          60.0124   93.5764   -2.5479 C.ar    1  UNL1        0.0115
     31 C          60.2753   93.4906   -1.0737 C.ar    1  UNL1        0.0039
     32 C          61.0185   87.3495   10.1898 C.3     1  UNL1        0.1269
     33 O          62.2427   87.0283    9.3846 O.3     1  UNL1       -0.3830
     34 H          62.9865   86.8544    9.9825 H       1  UNL1        0.2104
     35 C          61.0882   87.3617   11.6881 C.3     1  UNL1        0.0401
     36 C          62.4107   87.5283   12.3761 C.3     1  UNL1        0.0838
     37 C          62.6408   88.6989   13.2854 C.2     1  UNL1        0.2227
     38 O          61.5532   89.7104   13.4956 O.2     1  UNL1       -0.2751
     39 N          63.9584   88.8580   13.9843 N.am    1  UNL1       -0.2999
     40 H          64.6721   88.1941   13.8463 H       1  UNL1        0.1498
     41 C          64.1885   90.0286   14.8936 C.3     1  UNL1        0.1278
     42 C          65.2803   91.0113   14.5895 C.ar    1  UNL1        0.0320
     43 C          66.1419   90.8233   13.3761 C.ar    1  UNL1        0.0004
     44 C          67.2337   91.8059   13.0720 C.ar    1  UNL1       -0.0001
     45 C          67.4638   92.9765   13.9813 C.ar    1  UNL1        0.0031
     46 C          66.6022   93.1645   15.1946 C.ar    1  UNL1        0.0366
     47 C          65.5105   92.1819   15.4987 C.ar    1  UNL1        0.1362
     48 O          64.6488   92.3698   16.7121 O.3     1  UNL1       -0.4730
     49 C          63.5570   91.3872   17.0162 C.3     1  UNL1        0.2364
     50 C          63.3269   90.2166   16.1069 C.3     1  UNL1        0.1762
     51 O          62.2351   89.2339   16.4111 O.3     1  UNL1       -0.3788
     52 H          61.7775   89.5003   17.2238 H       1  UNL1        0.2106
     53 C          63.5029   86.5244   12.1549 C.3     1  UNL1        0.0421
     54 C          63.2358   85.0647   12.3743 C.ar    1  UNL1        0.0078
     55 C          63.3991   83.9757   11.3558 C.ar    1  UNL1        0.0042
     56 C          63.0227   82.6757   12.0028 C.ar    1  UNL1        0.0253
     57 C          62.9893   81.2689   11.4837 C.ar    1  UNL1        0.0993
     58 N          62.5600   80.1476   12.3828 N.ar    1  UNL1       -0.2423
     59 C          62.1641   80.4333   13.8011 C.ar    1  UNL1        0.0994
     60 C          62.1975   81.8402   14.3203 C.ar    1  UNL1        0.0271
     61 C          62.6268   82.9615   13.4211 C.ar    1  UNL1        0.0322
     62 S          62.7585   84.4379   13.6507 S.2     1  UNL1       -0.0912
@<TRIPOS>BOND
     1    17    18    1
     2    18    19    1
     3    18    20    1
     4    20    21   ar
     5    21    22   ar
     6    22    23   ar
     7    23    25    1
     8    25    26   ar
     9    26    27   ar
    10    27    28   ar
    11    28    29    1
    12    28    30   ar
    13    30    31   ar
    14    23    24   ar
    15    18     2    1
    16     2     3    1
    17     3     4    1
    18     4     5    1
    19     5     1    1
    20     1    32    1
    21    32    33    1
    22    32    35    1
    23    36    35    1
    24    36    53    1
    25    53    54    1
    26    54    55   ar
    27    55    56   ar
    28    56    57   ar
    29    57    58   ar
    30    58    59   ar
    31    59    60   ar
    32    60    61   ar
    33    61    62   ar
    34    36    37    1
    35    37    38    2
    36    37    39   am
    37    41    39    1
    38    41    42    1
    39    42    43   ar
    40    43    44   ar
    41    44    45   ar
    42    45    46   ar
    43    46    47   ar
    44    47    48    1
    45    48    49    1
    46    49    50    1
    47    50    51    1
    48     5     6    1
    49     6     8    1
    50     8     9    2
    51     8    10   am
    52    10    12    1
    53    12    13    1
    54    13    14    1
    55    13    15    1
    56    13    16    1
    57     6     7    1
    58    24    20   ar
    59     7     2    1
    60    31    25   ar
    61    62    54   ar
    62    50    41    1
    63    61    56   ar
    64    47    42   ar
    65    33    34    1
    66    39    40    1
    67    51    52    1
    68    10    11    1
@<TRIPOS>MOLECULE
*****
 62 68 0 0 0
SMALL
GASTEIGER

@<TRIPOS>ATOM
      1 C          59.6787   87.7673    9.6828 C.3     1  UNL1        0.1021
      2 N          59.9468   90.3495    6.0072 N.3     1  UNL1       -0.2650
      3 C          59.2147   89.0415    5.9530 C.3     1  UNL1        0.0900
      4 C          59.1253   88.1807    7.1782 C.3     1  UNL1        0.0901
      5 N          59.7681   88.6280    8.4576 N.3     1  UNL1       -0.2621
      6 C          60.5002   89.9360    8.5117 C.3     1  UNL1        0.1510
      7 C          60.5896   90.7968    7.2865 C.3     1  UNL1        0.0980
      8 C          61.1430   90.3834    9.7911 C.2     1  UNL1        0.2386
      9 O          60.2947   90.6876   10.9902 O.2     1  UNL1       -0.2736
     10 N          62.6339   90.5266    9.8713 N.am    1  UNL1       -0.2961
     11 H          63.1907   90.3269    9.0843 H       1  UNL1        0.1497
     12 C          63.2766   90.9739   11.1507 C.3     1  UNL1        0.1939
     13 C          64.2391   92.1245   11.1442 C.3     1  UNL1        0.4154
     14 F          65.2015   93.2750   11.1378 F       1  UNL1       -0.1682
     15 F          64.5327   91.8708    9.6953 F       1  UNL1       -0.1682
     16 F          63.9455   92.3781   12.5931 F       1  UNL1       -0.1682
     17 C          61.4877   90.8588    4.6410 C.3     1  UNL1        0.0255
     18 C          60.0362   91.2102    4.7819 C.3     1  UNL1        0.1147
     19 C          58.5848   91.5617    4.9229 C.3     1  UNL1        0.0255
     20 C          60.1256   92.0710    3.5567 C.ar    1  UNL1        0.2185
     21 N          58.9698   92.6881    2.8265 N.ar    1  UNL1       -0.2094
     22 C          59.5164   93.4643    1.6651 C.ar    1  UNL1        0.1392
     23 C          61.0100   93.3268    1.6775 C.ar    1  UNL1        0.1659
     24 O          61.3865   92.4657    2.8466 O.2     1  UNL1       -0.4370
     25 C          61.9603   93.9424    0.6936 C.ar    1  UNL1        0.0362
     26 C          62.0065   93.4405   -0.7192 C.ar    1  UNL1        0.0039
     27 C          62.9568   94.0561   -1.7030 C.ar    1  UNL1        0.0115
     28 C          63.8609   95.1735   -1.2741 C.ar    1  UNL1        0.0577
     29 CL         64.8112   95.7891   -2.2580 Cl      1  UNL1       -0.0822
     30 C          63.8147   95.6753    0.1388 C.ar    1  UNL1        0.0115
     31 C          62.8644   95.0598    1.1225 C.ar    1  UNL1        0.0039
     32 C          60.9306   87.2848   10.3534 C.3     1  UNL1        0.1269
     33 O          62.0618   86.7438    9.5301 O.3     1  UNL1       -0.3830
     34 H          62.7889   86.4780   10.1146 H       1  UNL1        0.2104
     35 C          61.0515   87.3434   11.8474 C.3     1  UNL1        0.0401
     36 C          62.3963   87.5334   12.4842 C.3     1  UNL1        0.0838
     37 C          62.6444   88.7148   13.3746 C.2     1  UNL1        0.2227
     38 O          61.5736   89.7477   13.5659 O.2     1  UNL1       -0.2751
     39 N          63.9632   88.8633   14.0736 N.am    1  UNL1       -0.2999
     40 H          64.6659   88.1854   13.9480 H       1  UNL1        0.1498
     41 C          64.2112   90.0447   14.9640 C.3     1  UNL1        0.1278
     42 C          65.3412   90.9849   14.6652 C.ar    1  UNL1        0.0320
     43 C          66.2231   90.7437   13.4761 C.ar    1  UNL1        0.0004
     44 C          67.3531   91.6838   13.1774 C.ar    1  UNL1       -0.0001
     45 C          67.6011   92.8652   14.0678 C.ar    1  UNL1        0.0031
     46 C          66.7192   93.1065   15.2569 C.ar    1  UNL1        0.0366
     47 C          65.5893   92.1663   15.5556 C.ar    1  UNL1        0.1362
     48 O          64.7073   92.4075   16.7447 O.3     1  UNL1       -0.4730
     49 C          63.5774   91.4674   17.0435 C.3     1  UNL1        0.2364
     50 C          63.3293   90.2860   16.1531 C.3     1  UNL1        0.1762
     51 O          62.1993   89.3458   16.4519 O.3     1  UNL1       -0.3788
     52 H          61.7326   89.6439   17.2483 H       1  UNL1        0.2106
     53 C          63.4930   86.5420   12.2305 C.3     1  UNL1        0.0421
     54 C          63.2403   85.0768   12.4291 C.ar    1  UNL1        0.0078
     55 C          63.4026   84.0056   11.3916 C.ar    1  UNL1        0.0042
     56 C          63.0435   82.6924   12.0212 C.ar    1  UNL1        0.0253
     57 C          63.0167   81.2938   11.4798 C.ar    1  UNL1        0.0993
     58 N          62.6057   80.1547   12.3650 N.ar    1  UNL1       -0.2423
     59 C          62.2214   80.4142   13.7915 C.ar    1  UNL1        0.0994
     60 C          62.2482   81.8128   14.3329 C.ar    1  UNL1        0.0271
     61 C          62.6592   82.9519   13.4477 C.ar    1  UNL1        0.0322
     62 S          62.7808   84.4256   13.6998 S.2     1  UNL1       -0.0912
@<TRIPOS>BOND
     1    17    18    1
     2    18    19    1
     3    18    20    1
     4    20    21   ar
     5    21    22   ar
     6    22    23   ar
     7    23    25    1
     8    25    26   ar
     9    26    27   ar
    10    27    28   ar
    11    28    29    1
    12    28    30   ar
    13    30    31   ar
    14    23    24   ar
    15    18     2    1
    16     2     3    1
    17     3     4    1
    18     4     5    1
    19     5     1    1
    20     1    32    1
    21    32    33    1
    22    32    35    1
    23    36    35    1
    24    36    53    1
    25    53    54    1
    26    54    55   ar
    27    55    56   ar
    28    56    57   ar
    29    57    58   ar
    30    58    59   ar
    31    59    60   ar
    32    60    61   ar
    33    61    62   ar
    34    36    37    1
    35    37    38    2
    36    37    39   am
    37    41    39    1
    38    41    42    1
    39    42    43   ar
    40    43    44   ar
    41    44    45   ar
    42    45    46   ar
    43    46    47   ar
    44    47    48    1
    45    48    49    1
    46    49    50    1
    47    50    51    1
    48     5     6    1
    49     6     8    1
    50     8     9    2
    51     8    10   am
    52    10    12    1
    53    12    13    1
    54    13    14    1
    55    13    15    1
    56    13    16    1
    57     6     7    1
    58    24    20   ar
    59     7     2    1
    60    31    25   ar
    61    62    54   ar
    62    50    41    1
    63    61    56   ar
    64    47    42   ar
    65    33    34    1
    66    39    40    1
    67    51    52    1
    68    10    11    1
@<TRIPOS>MOLECULE
*****
 62 68 0 0 0
SMALL
GASTEIGER

@<TRIPOS>ATOM
      1 C          59.4495   88.0879    9.7381 C.3     1  UNL1        0.1021
      2 N          59.8308   90.4828    5.9474 N.3     1  UNL1       -0.2650
      3 C          59.4632   91.1649    7.2318 C.3     1  UNL1        0.0900
      4 C          59.3361   90.3666    8.4953 C.3     1  UNL1        0.0901
      5 N          59.5766   88.8862    8.4745 N.3     1  UNL1       -0.2621
      6 C          59.9441   88.2041    7.1902 C.3     1  UNL1        0.1510
      7 C          60.0713   89.0024    5.9267 C.3     1  UNL1        0.0980
      8 C          60.1846   86.7236    7.1694 C.2     1  UNL1        0.2386
      9 O          59.0227   85.7753    7.1477 O.2     1  UNL1       -0.2736
     10 N          61.5871   86.1915    7.1702 N.am    1  UNL1       -0.2961
     11 H          62.3497   86.8139    7.1844 H       1  UNL1        0.1497
     12 C          61.8275   84.7111    7.1493 C.3     1  UNL1        0.1939
     13 C          61.9503   83.9895    5.8400 C.3     1  UNL1        0.4154
     14 F          62.0730   83.2680    4.5307 F       1  UNL1       -0.1682
     15 F          63.3559   84.4924    5.6946 F       1  UNL1       -0.1682
     16 F          60.5446   83.4866    5.9854 F       1  UNL1       -0.1682
     17 C          58.5057   91.6469    4.7689 C.3     1  UNL1        0.0255
     18 C          59.9579   91.2811    4.6839 C.3     1  UNL1        0.1147
     19 C          61.4101   90.9154    4.5989 C.3     1  UNL1        0.0255
     20 C          60.0850   92.0794    3.4204 C.ar    1  UNL1        0.2185
     21 N          58.9506   92.6137    2.5971 N.ar    1  UNL1       -0.2094
     22 C          59.5333   93.3481    1.4262 C.ar    1  UNL1        0.1392
     23 C          61.0279   93.2677    1.5257 C.ar    1  UNL1        0.1659
     24 O          61.3688   92.4836    2.7582 O.2     1  UNL1       -0.4370
     25 C          62.0092   93.8663    0.5620 C.ar    1  UNL1        0.0362
     26 C          63.3359   94.3636    1.0544 C.ar    1  UNL1        0.0039
     27 C          64.3171   94.9621    0.0907 C.ar    1  UNL1        0.0115
     28 C          63.9717   95.0634   -1.3654 C.ar    1  UNL1        0.0577
     29 CL         64.9531   95.6620   -2.3292 Cl      1  UNL1       -0.0822
     30 C          62.6450   94.5661   -1.8579 C.ar    1  UNL1        0.0115
     31 C          61.6638   93.9676   -0.8942 C.ar    1  UNL1        0.0039
     32 C          60.0418   88.6057   11.0152 C.3     1  UNL1        0.1269
     33 O          59.9981   90.0735   11.3212 O.3     1  UNL1       -0.3830
     34 H          60.4211   90.2378   12.1786 H       1  UNL1        0.2104
     35 C          60.6779   87.6557   11.9862 C.3     1  UNL1        0.0401
     36 C          62.1628   87.4442   11.9651 C.3     1  UNL1        0.0838
     37 C          63.0624   88.3638   12.7364 C.2     1  UNL1        0.2227
     38 O          64.1399   87.7978   13.6132 O.2     1  UNL1       -0.2751
     39 N          62.8846   89.8495   12.6309 N.am    1  UNL1       -0.2999
     40 H          62.1774   90.2210   12.0555 H       1  UNL1        0.1498
     41 C          63.7842   90.7692   13.4023 C.3     1  UNL1        0.1278
     42 C          64.6501   91.7550   12.6753 C.ar    1  UNL1        0.0320
     43 C          64.6164   91.8211   11.1772 C.ar    1  UNL1        0.0004
     44 C          65.4824   92.8069   10.4504 C.ar    1  UNL1       -0.0001
     45 C          66.3820   93.7266   11.2217 C.ar    1  UNL1        0.0031
     46 C          66.4156   93.6605   12.7198 C.ar    1  UNL1        0.0366
     47 C          65.5497   92.6747   13.4467 C.ar    1  UNL1        0.1362
     48 O          65.5833   92.6085   14.9449 O.3     1  UNL1       -0.4730
     49 C          64.7174   91.6227   15.6717 C.3     1  UNL1        0.2364
     50 C          63.8178   90.7031   14.9004 C.3     1  UNL1        0.1762
     51 O          62.9519   89.7172   15.6273 O.3     1  UNL1       -0.3788
     52 H          63.0937   89.8052   16.5828 H       1  UNL1        0.2106
     53 C          62.7481   86.3130   11.1727 C.3     1  UNL1        0.0421
     54 C          62.7311   84.9200   11.7290 C.ar    1  UNL1        0.0078
     55 C          62.6099   84.5506   13.1778 C.ar    1  UNL1        0.0042
     56 C          62.6363   83.0542   13.2784 C.ar    1  UNL1        0.0253
     57 C          62.5528   82.1256   14.4534 C.ar    1  UNL1        0.0993
     58 N          62.6069   80.6415   14.2418 N.ar    1  UNL1       -0.2423
     59 C          62.7443   80.0861   12.8552 C.ar    1  UNL1        0.0994
     60 C          62.8277   81.0148   11.6801 C.ar    1  UNL1        0.0271
     61 C          62.7737   82.4988   11.8917 C.ar    1  UNL1        0.0322
     62 S          62.8323   83.6519   10.9342 S.2     1  UNL1       -0.0912
@<TRIPOS>BOND
     1    17    18    1
     2    18    19    1
     3    18    20    1
     4    20    21   ar
     5    21    22   ar
     6    22    23   ar
     7    23    25    1
     8    25    26   ar
     9    26    27   ar
    10    27    28   ar
    11    28    29    1
    12    28    30   ar
    13    30    31   ar
    14    23    24   ar
    15    18     2    1
    16     2     3    1
    17     3     4    1
    18     4     5    1
    19     5     1    1
    20     1    32    1
    21    32    33    1
    22    32    35    1
    23    36    35    1
    24    36    53    1
    25    53    54    1
    26    54    55   ar
    27    55    56   ar
    28    56    57   ar
    29    57    58   ar
    30    58    59   ar
    31    59    60   ar
    32    60    61   ar
    33    61    62   ar
    34    36    37    1
    35    37    38    2
    36    37    39   am
    37    41    39    1
    38    41    42    1
    39    42    43   ar
    40    43    44   ar
    41    44    45   ar
    42    45    46   ar
    43    46    47   ar
    44    47    48    1
    45    48    49    1
    46    49    50    1
    47    50    51    1
    48     5     6    1
    49     6     8    1
    50     8     9    2
    51     8    10   am
    52    10    12    1
    53    12    13    1
    54    13    14    1
    55    13    15    1
    56    13    16    1
    57     6     7    1
    58    24    20   ar
    59     7     2    1
    60    31    25   ar
    61    62    54   ar
    62    50    41    1
    63    61    56   ar
    64    47    42   ar
    65    33    34    1
    66    39    40    1
    67    51    52    1
    68    10    11    1
