@<TRIPOS>MOLECULE
*****
 53 58 0 0 0
SMALL
GASTEIGER

@<TRIPOS>ATOM
      1 N          61.1614   85.9686    8.5161 N.3     1  UNL1       -0.1862
      2 C          61.9913   84.8111    8.9865 C.3     1  UNL1        0.1775
      3 C          62.7852   84.9235   10.2542 C.2     1  UNL1        0.2452
      4 O          63.6151   83.7659   10.7245 O.2     1  UNL1       -0.2732
      5 N          62.7491   86.1934   11.0516 N.am    1  UNL1       -0.2541
      6 C          63.5429   86.3058   12.3194 C.3     1  UNL1        0.1577
      7 C          63.5068   87.5758   13.1168 C.2     1  UNL1        0.2445
      8 O          64.3006   87.6882   14.3845 O.2     1  UNL1       -0.2731
      9 N          62.6768   88.7334   12.6464 N.am    1  UNL1       -0.2705
     10 C          61.8830   88.6210   11.3787 C.3     1  UNL1        0.1359
     11 C          61.9191   87.3510   10.5813 C.3     1  UNL1        0.1908
     12 N          61.1253   87.2386    9.3135 N.am    1  UNL1       -0.1863
     13 C          60.2953   88.3962    8.8432 C.2     1  UNL1        0.3191
     14 O          60.2592   89.6661    9.6406 O.2     1  UNL1       -0.2512
     15 N          59.5015   88.2838    7.5754 N.am    1  UNL1       -0.2836
     16 H          59.5252   87.4502    7.0521 H       1  UNL1        0.1513
     17 C          60.3675   85.8562    7.2484 C.3     1  UNL1        0.1188
     18 C          61.9132   84.4362    5.7172 C.2     1  UNL1       -0.0034
     19 C          60.5700   84.6811    6.3384 C.2     1  UNL1       -0.0071
     20 C          64.3728   85.1483   12.7897 C.3     1  UNL1        0.0556
     21 C          63.7058   83.9002   13.2870 C.ar    1  UNL1       -0.0198
     22 C          62.4375   83.9936   14.0825 C.ar    1  UNL1       -0.0011
     23 C          61.7705   82.7455   14.5798 C.ar    1  UNL1        0.0363
     24 C          62.3717   81.4041   14.2817 C.ar    1  UNL1        0.1337
     25 O          61.7046   80.1560   14.7790 O.3     1  UNL1       -0.5055
     26 C          63.6400   81.3106   13.4862 C.ar    1  UNL1        0.0363
     27 C          64.3071   82.5587   12.9889 C.ar    1  UNL1       -0.0011
     28 H          60.9124   80.2143   15.2759 H       1  UNL1        0.2922
     29 C          62.6407   90.0033   13.4438 C.3     1  UNL1        0.1217
     30 C          63.8504   90.8886   13.4996 C.ar    1  UNL1        0.0135
     31 C          64.6278   91.0168   14.7760 C.ar    1  UNL1       -0.0012
     32 C          65.8374   91.9020   14.8318 C.ar    1  UNL1       -0.0002
     33 C          66.2697   92.6590   13.6112 C.ar    1  UNL1        0.0016
     34 C          65.4923   92.5309   12.3347 C.ar    1  UNL1        0.0214
     35 C          65.6766   93.1497   10.9809 C.ar    1  UNL1        0.0734
     36 C          64.5809   92.6470   10.0883 C.ar    1  UNL1        0.0805
     37 N          63.7194   91.7175   10.8906 N.ar    1  UNL1       -0.3241
     38 C          62.5074   90.9878   10.3921 C.3     1  UNL1        0.1305
     39 C          64.2827   91.6457   12.2789 C.ar    1  UNL1        0.0577
     40 C          66.7655   94.1039   10.5884 C.2     1  UNL1        0.2635
     41 O          68.1511   93.5933   10.3248 O.2     1  UNL1       -0.2686
     42 N          66.4688   95.5686   10.4595 N.am    1  UNL1       -0.2192
     43 C          67.5576   96.5227   10.0671 C.3     1  UNL1        0.1347
     44 N          65.0832   96.0791   10.7231 N.3     1  UNL1       -0.2249
     45 C          64.3551   96.8531    9.6643 C.3     1  UNL1        0.1065
     46 H          65.1432   96.6847   11.5417 H       1  UNL1        0.1453
     47 C          58.6715   89.4413    7.1051 C.3     1  UNL1        0.1177
     48 C          59.1728   90.3238    6.0006 C.ar    1  UNL1       -0.0025
     49 C          60.6337   90.3437    5.6609 C.ar    1  UNL1       -0.0026
     50 C          61.1349   91.2262    4.5564 C.ar    1  UNL1       -0.0003
     51 C          60.1753   92.0888    3.7916 C.ar    1  UNL1       -0.0000
     52 C          58.7144   92.0690    4.1312 C.ar    1  UNL1       -0.0003
     53 C          58.2131   91.1865    5.2357 C.ar    1  UNL1       -0.0026
@<TRIPOS>BOND
     1    18    19    2
     2    19    17    1
     3    17     1    1
     4     1     2    1
     5     2     3    1
     6     3     4    2
     7     3     5   am
     8     5     6    1
     9     6    20    1
    10    20    21    1
    11    21    22   ar
    12    22    23   ar
    13    23    24   ar
    14    24    25    1
    15    24    26   ar
    16    26    27   ar
    17     6     7    1
    18     7     8    2
    19     7     9   am
    20     9    29    1
    21    29    30    1
    22    30    31   ar
    23    31    32   ar
    24    32    33   ar
    25    33    34   ar
    26    34    35   ar
    27    35    40    1
    28    40    41    2
    29    40    42   am
    30    42    43    1
    31    42    44    1
    32    44    45    1
    33    35    36   ar
    34    36    37   ar
    35    37    38    1
    36    37    39   ar
    37     9    10    1
    38    11    10    1
    39    11    12    1
    40    12    13   am
    41    13    14    2
    42    13    15   am
    43    15    47    1
    44    47    48    1
    45    48    49   ar
    46    49    50   ar
    47    50    51   ar
    48    51    52   ar
    49    52    53   ar
    50    12     1    1
    51    53    48   ar
    52    11     5    1
    53    27    21   ar
    54    39    30   ar
    55    39    34   ar
    56    25    28    1
    57    44    46    1
    58    15    16    1
@<TRIPOS>MOLECULE
*****
 53 58 0 0 0
SMALL
GASTEIGER

@<TRIPOS>ATOM
      1 N          62.5025   84.2602    9.3476 N.3     1  UNL1       -0.1862
      2 C          61.7085   84.3644    8.0793 C.3     1  UNL1        0.1775
      3 C          60.9535   85.6227    7.7684 C.2     1  UNL1        0.2452
      4 O          60.1594   85.7269    6.5000 O.2     1  UNL1       -0.2732
      5 N          60.9925   86.7768    8.7257 N.am    1  UNL1       -0.2541
      6 C          60.2375   88.0351    8.4148 C.3     1  UNL1        0.1577
      7 C          60.2766   89.1892    9.3721 C.2     1  UNL1        0.2445
      8 O          59.5216   90.4475    9.0612 O.2     1  UNL1       -0.2731
      9 N          61.0707   89.0850   10.6405 N.am    1  UNL1       -0.2705
     10 C          61.8257   87.8267   10.9514 C.3     1  UNL1        0.1359
     11 C          61.7866   86.6726    9.9940 C.3     1  UNL1        0.1908
     12 N          62.5416   85.4143   10.3049 N.am    1  UNL1       -0.1863
     13 C          63.3357   85.3101   11.5733 C.2     1  UNL1        0.3191
     14 O          63.3747   86.4642   12.5306 O.2     1  UNL1       -0.2512
     15 N          64.0907   84.0519   11.8842 N.am    1  UNL1       -0.2836
     16 H          64.0650   83.2944   11.2559 H       1  UNL1        0.1513
     17 C          63.2575   83.0019    9.6585 C.3     1  UNL1        0.1188
     18 C          63.0657   80.5305   10.4363 C.2     1  UNL1       -0.0034
     19 C          62.6517   81.9670   10.5594 C.2     1  UNL1       -0.0071
     20 C          59.4435   88.1393    7.1465 C.3     1  UNL1        0.0556
     21 C          59.4578   89.4135    6.3552 C.ar    1  UNL1       -0.0198
     22 C          58.1739   90.1369    6.0751 C.ar    1  UNL1       -0.0011
     23 C          58.1882   91.4111    5.2839 C.ar    1  UNL1        0.0363
     24 C          59.4863   91.9620    4.7727 C.ar    1  UNL1        0.1337
     25 O          59.5006   93.2362    3.9814 O.3     1  UNL1       -0.5055
     26 C          60.7703   91.2386    5.0527 C.ar    1  UNL1        0.0363
     27 C          60.7560   89.9644    5.8440 C.ar    1  UNL1       -0.0011
     28 H          58.6986   93.6881    3.8064 H       1  UNL1        0.2922
     29 C          61.1097   90.2391   11.5978 C.3     1  UNL1        0.1217
     30 C          62.2063   90.3311   12.6173 C.ar    1  UNL1        0.0135
     31 C          62.0108   89.7448   13.9840 C.ar    1  UNL1       -0.0012
     32 C          63.1072   89.8368   15.0034 C.ar    1  UNL1       -0.0002
     33 C          64.3991   90.5152   14.6561 C.ar    1  UNL1        0.0016
     34 C          64.5946   91.1015   13.2894 C.ar    1  UNL1        0.0214
     35 C          65.7502   91.8244   12.6633 C.ar    1  UNL1        0.0734
     36 C          65.3679   92.1792   11.2569 C.ar    1  UNL1        0.0805
     37 N          63.9761   91.6755   11.0138 N.ar    1  UNL1       -0.3241
     38 C          63.1987   91.8136    9.7385 C.3     1  UNL1        0.1305
     39 C          63.4982   91.0095   12.2700 C.ar    1  UNL1        0.0577
     40 C          67.0584   92.1376   13.3271 C.2     1  UNL1        0.2635
     41 O          68.3474   91.7567   12.6612 O.2     1  UNL1       -0.2686
     42 N          67.0776   92.8317   14.6567 N.am    1  UNL1       -0.2192
     43 C          68.3857   93.1449   15.3205 C.3     1  UNL1        0.1347
     44 N          65.7885   93.2126   15.3225 N.3     1  UNL1       -0.2249
     45 C          65.4480   92.6540   16.6723 C.3     1  UNL1        0.1065
     46 H          65.0375   92.9346   14.6908 H       1  UNL1        0.1453
     47 C          64.8848   83.9476   13.1525 C.3     1  UNL1        0.1177
     48 C          64.3458   84.5311   14.4249 C.ar    1  UNL1       -0.0025
     49 C          64.8969   85.8237   14.9498 C.ar    1  UNL1       -0.0026
     50 C          64.3579   86.4072   16.2222 C.ar    1  UNL1       -0.0003
     51 C          63.2678   85.6981   16.9698 C.ar    1  UNL1       -0.0000
     52 C          62.7167   84.4054   16.4449 C.ar    1  UNL1       -0.0003
     53 C          63.2557   83.8220   15.1725 C.ar    1  UNL1       -0.0026
@<TRIPOS>BOND
     1    18    19    2
     2    19    17    1
     3    17     1    1
     4     1     2    1
     5     2     3    1
     6     3     4    2
     7     3     5   am
     8     5     6    1
     9     6    20    1
    10    20    21    1
    11    21    22   ar
    12    22    23   ar
    13    23    24   ar
    14    24    25    1
    15    24    26   ar
    16    26    27   ar
    17     6     7    1
    18     7     8    2
    19     7     9   am
    20     9    29    1
    21    29    30    1
    22    30    31   ar
    23    31    32   ar
    24    32    33   ar
    25    33    34   ar
    26    34    35   ar
    27    35    40    1
    28    40    41    2
    29    40    42   am
    30    42    43    1
    31    42    44    1
    32    44    45    1
    33    35    36   ar
    34    36    37   ar
    35    37    38    1
    36    37    39   ar
    37     9    10    1
    38    11    10    1
    39    11    12    1
    40    12    13   am
    41    13    14    2
    42    13    15   am
    43    15    47    1
    44    47    48    1
    45    48    49   ar
    46    49    50   ar
    47    50    51   ar
    48    51    52   ar
    49    52    53   ar
    50    12     1    1
    51    53    48   ar
    52    11     5    1
    53    27    21   ar
    54    39    30   ar
    55    39    34   ar
    56    25    28    1
    57    44    46    1
    58    15    16    1
@<TRIPOS>MOLECULE
*****
 53 58 0 0 0
SMALL
GASTEIGER

@<TRIPOS>ATOM
      1 N          62.2962   84.2741    9.7889 N.3     1  UNL1       -0.1862
      2 C          61.5019   84.2950    8.5167 C.3     1  UNL1        0.1775
      3 C          60.8705   85.5722    8.0476 C.2     1  UNL1        0.2452
      4 O          60.0761   85.5930    6.7753 O.2     1  UNL1       -0.2732
      5 N          61.0334   86.8285    8.8506 N.am    1  UNL1       -0.2541
      6 C          60.4021   88.1057    8.3815 C.3     1  UNL1        0.1577
      7 C          60.5650   89.3621    9.1846 C.2     1  UNL1        0.2445
      8 O          59.9336   90.6393    8.7155 O.2     1  UNL1       -0.2731
      9 N          61.3594   89.3413   10.4569 N.am    1  UNL1       -0.2705
     10 C          61.9907   88.0640   10.9260 C.3     1  UNL1        0.1359
     11 C          61.8277   86.8076   10.1229 C.3     1  UNL1        0.1908
     12 N          62.4591   85.5304   10.5920 N.am    1  UNL1       -0.1863
     13 C          63.2535   85.5096   11.8643 C.2     1  UNL1        0.3191
     14 O          63.4164   86.7659   12.6674 O.2     1  UNL1       -0.2512
     15 N          63.8848   84.2324   12.3334 N.am    1  UNL1       -0.2836
     16 H          63.7779   83.4078   11.8063 H       1  UNL1        0.1513
     17 C          62.9275   82.9969   10.2580 C.3     1  UNL1        0.1188
     18 C          62.9278   80.9352   11.8390 C.2     1  UNL1       -0.0034
     19 C          62.2982   82.2142   11.3721 C.2     1  UNL1       -0.0071
     20 C          59.6077   88.1266    7.1093 C.3     1  UNL1        0.0556
     21 C          59.5347   89.3818    6.2912 C.ar    1  UNL1       -0.0198
     22 C          60.7772   89.9424    5.6653 C.ar    1  UNL1       -0.0011
     23 C          60.7042   91.1975    4.8472 C.ar    1  UNL1        0.0363
     24 C          59.3887   91.8921    4.6550 C.ar    1  UNL1        0.1337
     25 O          59.3156   93.1472    3.8370 O.3     1  UNL1       -0.5055
     26 C          58.1461   91.3315    5.2810 C.ar    1  UNL1        0.0363
     27 C          58.2191   90.0763    6.0991 C.ar    1  UNL1       -0.0011
     28 H          60.0918   93.4974    3.4459 H       1  UNL1        0.2922
     29 C          61.5223   90.5976   11.2600 C.3     1  UNL1        0.1217
     30 C          62.8786   91.2200   11.4120 C.ar    1  UNL1        0.0135
     31 C          63.4868   91.9809   10.2712 C.ar    1  UNL1       -0.0012
     32 C          64.8430   92.6033   10.4232 C.ar    1  UNL1       -0.0002
     33 C          65.5912   92.4648   11.7159 C.ar    1  UNL1        0.0016
     34 C          64.9831   91.7039   12.8566 C.ar    1  UNL1        0.0214
     35 C          65.4791   91.4024   14.2397 C.ar    1  UNL1        0.0734
     36 C          64.4293   90.5937   14.9426 C.ar    1  UNL1        0.0805
     37 N          63.2846   90.3954   13.9939 N.ar    1  UNL1       -0.3241
     38 C          62.0197   89.6430   14.2835 C.3     1  UNL1        0.1305
     39 C          63.6268   91.0815   12.7047 C.ar    1  UNL1        0.0577
     40 C          66.7940   91.8340   14.8184 C.2     1  UNL1        0.2635
     41 O          67.7532   90.8091   15.3473 O.2     1  UNL1       -0.2686
     42 N          67.1498   93.2903   14.8682 N.am    1  UNL1       -0.2192
     43 C          68.4646   93.7219   15.4468 C.3     1  UNL1        0.1347
     44 N          66.1906   94.3151   14.3393 N.3     1  UNL1       -0.2249
     45 C          66.5317   95.0946   13.1039 C.3     1  UNL1        0.1065
     46 H          66.0450   94.9950   15.0856 H       1  UNL1        0.1453
     47 C          64.6792   84.2115   13.6056 C.3     1  UNL1        0.1177
     48 C          64.1284   84.8535   14.8443 C.ar    1  UNL1       -0.0025
     49 C          63.1095   84.1303   15.6743 C.ar    1  UNL1       -0.0026
     50 C          62.5587   84.7724   16.9130 C.ar    1  UNL1       -0.0003
     51 C          63.0268   86.1376   17.3218 C.ar    1  UNL1       -0.0000
     52 C          64.0457   86.8608   16.4918 C.ar    1  UNL1       -0.0003
     53 C          64.5965   86.2188   15.2530 C.ar    1  UNL1       -0.0026
@<TRIPOS>BOND
     1    18    19    2
     2    19    17    1
     3    17     1    1
     4     1     2    1
     5     2     3    1
     6     3     4    2
     7     3     5   am
     8     5     6    1
     9     6    20    1
    10    20    21    1
    11    21    22   ar
    12    22    23   ar
    13    23    24   ar
    14    24    25    1
    15    24    26   ar
    16    26    27   ar
    17     6     7    1
    18     7     8    2
    19     7     9   am
    20     9    29    1
    21    29    30    1
    22    30    31   ar
    23    31    32   ar
    24    32    33   ar
    25    33    34   ar
    26    34    35   ar
    27    35    40    1
    28    40    41    2
    29    40    42   am
    30    42    43    1
    31    42    44    1
    32    44    45    1
    33    35    36   ar
    34    36    37   ar
    35    37    38    1
    36    37    39   ar
    37     9    10    1
    38    11    10    1
    39    11    12    1
    40    12    13   am
    41    13    14    2
    42    13    15   am
    43    15    47    1
    44    47    48    1
    45    48    49   ar
    46    49    50   ar
    47    50    51   ar
    48    51    52   ar
    49    52    53   ar
    50    12     1    1
    51    53    48   ar
    52    11     5    1
    53    27    21   ar
    54    39    30   ar
    55    39    34   ar
    56    25    28    1
    57    44    46    1
    58    15    16    1
