@<TRIPOS>MOLECULE
*****
 34 38 0 0 0
SMALL
GASTEIGER

@<TRIPOS>ATOM
      1 C          62.9196   86.3784   12.4102 C.2     1  UNL1        0.2528
      2 O          63.4771   87.2812   13.4705 O.2     1  UNL1       -0.2698
      3 N          62.0064   86.9327   11.3573 N.am    1  UNL1       -0.2722
      4 C          61.4490   86.0299   10.2970 C.3     1  UNL1        0.1257
      5 C          60.5357   86.5843    9.2440 C.3     1  UNL1        0.1637
      6 O          60.1799   88.0414    9.2514 O.3     1  UNL1       -0.3502
      7 C          60.7374   88.9443   10.3116 C.3     1  UNL1        0.1622
      8 C          61.6506   88.3899   11.3646 C.3     1  UNL1        0.1096
      9 C          64.1987   82.0716    9.7996 C.3     1  UNL1        0.0334
     10 C          63.9150   82.7678   11.0976 C.ar    1  UNL1        0.0059
     11 C          63.9871   82.0069   12.3883 C.ar    1  UNL1       -0.0004
     12 C          63.7033   82.7032   13.6862 C.ar    1  UNL1        0.0209
     13 C          63.3475   84.1603   13.6936 C.ar    1  UNL1        0.1094
     14 C          63.2754   84.9212   12.4029 C.ar    1  UNL1        0.1000
     15 C          63.5592   84.2249   11.1050 C.ar    1  UNL1        0.1420
     16 F          63.4871   84.9859    9.8143 F       1  UNL1       -0.2043
     17 N          63.0638   84.8565   14.9916 N.ar    1  UNL1       -0.1476
     18 N          64.0719   85.5515   15.8580 N.ar    1  UNL1       -0.1447
     19 C          63.3533   86.1046   17.0530 C.ar    1  UNL1        0.1446
     20 C          61.9011   85.7514   16.9250 C.ar    1  UNL1        0.1446
     21 N          61.7222   84.9801   15.6510 N.ar    1  UNL1       -0.1447
     22 C          62.2080   89.2928   12.4248 C.3     1  UNL1        0.0487
     23 C          63.2460   90.3156   12.0693 C.ar    1  UNL1       -0.0203
     24 C          63.2523   90.9339   10.7027 C.ar    1  UNL1       -0.0042
     25 C          64.2903   91.9567   10.3470 C.ar    1  UNL1       -0.0002
     26 C          65.3219   92.3613   11.3580 C.ar    1  UNL1        0.0030
     27 C          65.3155   91.7429   12.7247 C.ar    1  UNL1        0.0355
     28 C          64.2776   90.7201   13.0803 C.ar    1  UNL1       -0.0012
     29 C          66.3471   92.1474   13.7357 C.ar    1  UNL1        0.1622
     30 N          67.8028   92.1183   13.3748 N.ar    1  UNL1       -0.2250
     31 C          68.8344   92.5228   14.3858 C.ar    1  UNL1        0.1022
     32 C          68.4103   92.9565   15.7577 C.ar    1  UNL1        0.0414
     33 C          66.9547   92.9856   16.1186 C.ar    1  UNL1        0.1022
     34 N          65.9231   92.5811   15.1076 N.ar    1  UNL1       -0.2250
@<TRIPOS>BOND
     1     9    10    1
     2    10    11   ar
     3    11    12   ar
     4    12    13   ar
     5    13    17    1
     6    17    18   ar
     7    18    19   ar
     8    19    20   ar
     9    20    21   ar
    10    13    14   ar
    11    14     1    1
    12     1     2    2
    13     1     3   am
    14     3     4    1
    15     4     5    1
    16     5     6    1
    17     6     7    1
    18     7     8    1
    19     8    22    1
    20    22    23    1
    21    23    24   ar
    22    24    25   ar
    23    25    26   ar
    24    26    27   ar
    25    27    29    1
    26    29    30   ar
    27    30    31   ar
    28    31    32   ar
    29    32    33   ar
    30    33    34   ar
    31    27    28   ar
    32    14    15   ar
    33    15    16    1
    34    15    10   ar
    35    21    17   ar
    36     8     3    1
    37    28    23   ar
    38    34    29   ar
@<TRIPOS>MOLECULE
*****
 34 38 0 0 0
SMALL
GASTEIGER

@<TRIPOS>ATOM
      1 C          62.6818   87.3406   11.7940 C.2     1  UNL1        0.2528
      2 O          63.7239   87.8574   12.7409 O.2     1  UNL1       -0.2698
      3 N          61.4610   88.1616   11.5014 N.am    1  UNL1       -0.2722
      4 C          60.4188   87.6447   10.5544 C.3     1  UNL1        0.1257
      5 C          59.1980   88.4658   10.2618 C.3     1  UNL1        0.1637
      6 O          59.0194   89.8036   10.9162 O.3     1  UNL1       -0.3502
      7 C          60.0616   90.3205   11.8631 C.3     1  UNL1        0.1622
      8 C          61.2824   89.4995   12.1557 C.3     1  UNL1        0.1096
      9 C          62.9563   84.4344    7.4953 C.3     1  UNL1        0.0334
     10 C          62.9977   84.5496    8.9903 C.ar    1  UNL1        0.0059
     11 C          63.2176   83.3270    9.8309 C.ar    1  UNL1       -0.0004
     12 C          63.2590   83.4421   11.3259 C.ar    1  UNL1        0.0209
     13 C          63.0803   84.7800   11.9802 C.ar    1  UNL1        0.1094
     14 C          62.8604   86.0026   11.1396 C.ar    1  UNL1        0.1000
     15 C          62.8191   85.8874    9.6446 C.ar    1  UNL1        0.1420
     16 F          62.5991   87.1102    8.8040 F       1  UNL1       -0.2043
     17 N          63.1217   84.8952   13.4752 N.ar    1  UNL1       -0.1476
     18 N          61.9693   84.6713   14.4090 N.ar    1  UNL1       -0.1447
     19 C          62.4581   84.8922   15.8098 C.ar    1  UNL1        0.1446
     20 C          63.9125   85.2527   15.7419 C.ar    1  UNL1        0.1446
     21 N          64.3226   85.2545   14.2990 N.ar    1  UNL1       -0.1447
     22 C          62.3246   90.0163   13.1027 C.3     1  UNL1        0.0487
     23 C          63.4639   90.8435   12.5853 C.ar    1  UNL1       -0.0203
     24 C          63.4711   91.2999   11.1565 C.ar    1  UNL1       -0.0042
     25 C          64.6104   92.1271   10.6391 C.ar    1  UNL1       -0.0002
     26 C          65.7427   92.4977   11.5506 C.ar    1  UNL1        0.0030
     27 C          65.7355   92.0412   12.9794 C.ar    1  UNL1        0.0355
     28 C          64.5961   91.2141   13.4968 C.ar    1  UNL1       -0.0012
     29 C          66.8677   92.4118   13.8909 C.ar    1  UNL1        0.1622
     30 N          68.2776   92.0637   13.5153 N.ar    1  UNL1       -0.2250
     31 C          69.4098   92.4343   14.4268 C.ar    1  UNL1        0.1022
     32 C          69.1321   93.1531   15.7138 C.ar    1  UNL1        0.0414
     33 C          67.7222   93.5012   16.0893 C.ar    1  UNL1        0.1022
     34 N          66.5900   93.1306   15.1778 N.ar    1  UNL1       -0.2250
@<TRIPOS>BOND
     1     9    10    1
     2    10    11   ar
     3    11    12   ar
     4    12    13   ar
     5    13    17    1
     6    17    18   ar
     7    18    19   ar
     8    19    20   ar
     9    20    21   ar
    10    13    14   ar
    11    14     1    1
    12     1     2    2
    13     1     3   am
    14     3     4    1
    15     4     5    1
    16     5     6    1
    17     6     7    1
    18     7     8    1
    19     8    22    1
    20    22    23    1
    21    23    24   ar
    22    24    25   ar
    23    25    26   ar
    24    26    27   ar
    25    27    29    1
    26    29    30   ar
    27    30    31   ar
    28    31    32   ar
    29    32    33   ar
    30    33    34   ar
    31    27    28   ar
    32    14    15   ar
    33    15    16    1
    34    15    10   ar
    35    21    17   ar
    36     8     3    1
    37    28    23   ar
    38    34    29   ar
@<TRIPOS>MOLECULE
*****
 34 38 0 0 0
SMALL
GASTEIGER

@<TRIPOS>ATOM
      1 C          63.4275   87.7830   13.2632 C.2     1  UNL1        0.2528
      2 O          63.6368   88.8711   12.2521 O.2     1  UNL1       -0.2698
      3 N          63.3465   88.1207   14.7225 N.am    1  UNL1       -0.2722
      4 C          63.1372   87.0326   15.7335 C.3     1  UNL1        0.1257
      5 C          63.0562   87.3702   17.1928 C.3     1  UNL1        0.1637
      6 O          63.1845   88.7959   17.6410 O.3     1  UNL1       -0.3502
      7 C          63.3937   89.8840   16.6299 C.3     1  UNL1        0.1622
      8 C          63.4748   89.5464   15.1707 C.3     1  UNL1        0.1096
      9 C          64.7423   82.7791   13.7443 C.3     1  UNL1        0.0334
     10 C          63.9567   83.8553   13.0555 C.ar    1  UNL1        0.0059
     11 C          63.0427   83.5059   11.9186 C.ar    1  UNL1       -0.0004
     12 C          62.2570   84.5822   11.2299 C.ar    1  UNL1        0.0209
     13 C          62.3853   86.0079   11.6781 C.ar    1  UNL1        0.1094
     14 C          63.2992   86.3573   12.8150 C.ar    1  UNL1        0.1000
     15 C          64.0849   85.2810   13.5037 C.ar    1  UNL1        0.1420
     16 F          64.9988   85.6305   14.6407 F       1  UNL1       -0.2043
     17 N          61.5996   87.0841   10.9893 N.ar    1  UNL1       -0.1476
     18 N          61.8621   87.6252    9.6152 N.ar    1  UNL1       -0.1447
     19 C          60.8382   88.6838    9.3304 C.ar    1  UNL1        0.1446
     20 C          59.9429   88.7970   10.5286 C.ar    1  UNL1        0.1446
     21 N          60.4135   87.8083   11.5538 N.ar    1  UNL1       -0.1447
     22 C          63.6840   90.6345   14.1596 C.3     1  UNL1        0.0487
     23 C          65.0441   91.2415   13.9817 C.ar    1  UNL1       -0.0203
     24 C          66.0882   91.0668   15.0444 C.ar    1  UNL1       -0.0042
     25 C          67.4483   91.6739   14.8665 C.ar    1  UNL1       -0.0002
     26 C          67.7643   92.4556   13.6260 C.ar    1  UNL1        0.0030
     27 C          66.7202   92.6303   12.5632 C.ar    1  UNL1        0.0355
     28 C          65.3601   92.0232   12.7411 C.ar    1  UNL1       -0.0012
     29 C          67.0362   93.4120   11.3226 C.ar    1  UNL1        0.1622
     30 N          67.7139   92.7403   10.1652 N.ar    1  UNL1       -0.2250
     31 C          68.0299   93.5220    8.9246 C.ar    1  UNL1        0.1022
     32 C          67.6682   94.9754    8.8415 C.ar    1  UNL1        0.0414
     33 C          66.9905   95.6470    9.9989 C.ar    1  UNL1        0.1022
     34 N          66.6745   94.8653   11.2394 N.ar    1  UNL1       -0.2250
@<TRIPOS>BOND
     1     9    10    1
     2    10    11   ar
     3    11    12   ar
     4    12    13   ar
     5    13    17    1
     6    17    18   ar
     7    18    19   ar
     8    19    20   ar
     9    20    21   ar
    10    13    14   ar
    11    14     1    1
    12     1     2    2
    13     1     3   am
    14     3     4    1
    15     4     5    1
    16     5     6    1
    17     6     7    1
    18     7     8    1
    19     8    22    1
    20    22    23    1
    21    23    24   ar
    22    24    25   ar
    23    25    26   ar
    24    26    27   ar
    25    27    29    1
    26    29    30   ar
    27    30    31   ar
    28    31    32   ar
    29    32    33   ar
    30    33    34   ar
    31    27    28   ar
    32    14    15   ar
    33    15    16    1
    34    15    10   ar
    35    21    17   ar
    36     8     3    1
    37    28    23   ar
    38    34    29   ar
@<TRIPOS>MOLECULE
*****
 34 38 0 0 0
SMALL
GASTEIGER

@<TRIPOS>ATOM
      1 C          62.9887   87.2418   12.0683 C.2     1  UNL1        0.2528
      2 O          63.7858   87.3440   13.3349 O.2     1  UNL1       -0.2698
      3 N          62.2019   88.4218   11.5801 N.am    1  UNL1       -0.2722
      4 C          61.4048   88.3197   10.3135 C.3     1  UNL1        0.1257
      5 C          60.6180   89.4998    9.8253 C.3     1  UNL1        0.1637
      6 O          60.6283   90.7820   10.6036 O.3     1  UNL1       -0.3502
      7 C          61.4254   90.8842   11.8701 C.3     1  UNL1        0.1622
      8 C          62.2122   89.7041   12.3584 C.3     1  UNL1        0.1096
      9 C          62.8572   84.7428    7.5145 C.3     1  UNL1        0.0334
     10 C          62.9127   84.7101    9.0131 C.ar    1  UNL1        0.0059
     11 C          62.9579   83.3951    9.7334 C.ar    1  UNL1       -0.0004
     12 C          63.0134   83.3624   11.2320 C.ar    1  UNL1        0.0209
     13 C          63.0236   84.6446   12.0103 C.ar    1  UNL1        0.1094
     14 C          62.9784   85.9595   11.2900 C.ar    1  UNL1        0.1000
     15 C          62.9230   85.9923    9.7914 C.ar    1  UNL1        0.1420
     16 F          62.8777   87.3073    9.0711 F       1  UNL1       -0.2043
     17 N          63.0791   84.6119   13.5089 N.ar    1  UNL1       -0.1476
     18 N          64.3174   84.4637   14.3424 N.ar    1  UNL1       -0.1447
     19 C          63.9097   84.4818   15.7858 C.ar    1  UNL1        0.1446
     20 C          62.4193   84.6412   15.8444 C.ar    1  UNL1        0.1446
     21 N          61.9060   84.7215   14.4373 N.ar    1  UNL1       -0.1447
     22 C          63.0093   89.8063   13.6250 C.3     1  UNL1        0.0487
     23 C          64.1157   90.8130   13.7357 C.ar    1  UNL1       -0.0203
     24 C          64.6742   91.1687   15.0816 C.ar    1  UNL1       -0.0042
     25 C          65.7807   92.1754   15.1923 C.ar    1  UNL1       -0.0002
     26 C          66.3287   92.8263   13.9571 C.ar    1  UNL1        0.0030
     27 C          65.7703   92.4706   12.6111 C.ar    1  UNL1        0.0355
     28 C          64.6638   91.4639   12.5004 C.ar    1  UNL1       -0.0012
     29 C          66.3183   93.1216   11.3758 C.ar    1  UNL1        0.1622
     30 N          65.7405   94.4187   10.8923 N.ar    1  UNL1       -0.2250
     31 C          66.2885   95.0697    9.6570 C.ar    1  UNL1        0.1022
     32 C          67.4144   94.4235    8.9053 C.ar    1  UNL1        0.0414
     33 C          67.9922   93.1265    9.3889 C.ar    1  UNL1        0.1022
     34 N          67.4441   92.4755   10.6241 N.ar    1  UNL1       -0.2250
@<TRIPOS>BOND
     1     9    10    1
     2    10    11   ar
     3    11    12   ar
     4    12    13   ar
     5    13    17    1
     6    17    18   ar
     7    18    19   ar
     8    19    20   ar
     9    20    21   ar
    10    13    14   ar
    11    14     1    1
    12     1     2    2
    13     1     3   am
    14     3     4    1
    15     4     5    1
    16     5     6    1
    17     6     7    1
    18     7     8    1
    19     8    22    1
    20    22    23    1
    21    23    24   ar
    22    24    25   ar
    23    25    26   ar
    24    26    27   ar
    25    27    29    1
    26    29    30   ar
    27    30    31   ar
    28    31    32   ar
    29    32    33   ar
    30    33    34   ar
    31    27    28   ar
    32    14    15   ar
    33    15    16    1
    34    15    10   ar
    35    21    17   ar
    36     8     3    1
    37    28    23   ar
    38    34    29   ar
@<TRIPOS>MOLECULE
*****
 34 38 0 0 0
SMALL
GASTEIGER

@<TRIPOS>ATOM
      1 C          63.7731   86.5859   13.6206 C.2     1  UNL1        0.2528
      2 O          64.7929   86.9844   14.6458 O.2     1  UNL1       -0.2698
      3 N          63.2016   87.6156   12.6915 N.am    1  UNL1       -0.2722
      4 C          62.1817   87.2171   11.6663 C.3     1  UNL1        0.1257
      5 C          61.6102   88.2468   10.7373 C.3     1  UNL1        0.1637
      6 O          62.0585   89.6750   10.8334 O.3     1  UNL1       -0.3502
      7 C          63.0784   90.0735   11.8586 C.3     1  UNL1        0.1622
      8 C          63.6499   89.0438   12.7877 C.3     1  UNL1        0.1096
      9 C          63.1755   82.2341   10.8448 C.3     1  UNL1        0.0334
     10 C          63.0259   82.9818   12.1365 C.ar    1  UNL1        0.0059
     11 C          62.4280   82.3013   13.3321 C.ar    1  UNL1       -0.0004
     12 C          62.2784   83.0490   14.6238 C.ar    1  UNL1        0.0209
     13 C          62.7267   84.4772   14.7200 C.ar    1  UNL1        0.1094
     14 C          63.3247   85.1577   13.5244 C.ar    1  UNL1        0.1000
     15 C          63.4742   84.4100   12.2327 C.ar    1  UNL1        0.1420
     16 F          64.0722   85.0905   11.0371 F       1  UNL1       -0.2043
     17 N          62.5772   85.2249   16.0117 N.ar    1  UNL1       -0.1476
     18 N          61.3147   85.8491   16.5281 N.ar    1  UNL1       -0.1447
     19 C          61.6211   86.4896   17.8494 C.ar    1  UNL1        0.1446
     20 C          63.0729   86.2614   18.1497 C.ar    1  UNL1        0.1446
     21 N          63.6638   85.4797   17.0139 N.ar    1  UNL1       -0.1447
     22 C          64.6698   89.4423   13.8129 C.3     1  UNL1        0.0487
     23 C          65.2394   90.8299   13.8042 C.ar    1  UNL1       -0.0203
     24 C          65.4130   91.5773   15.0931 C.ar    1  UNL1       -0.0042
     25 C          65.9826   92.9650   15.0845 C.ar    1  UNL1       -0.0002
     26 C          66.3785   93.6052   13.7871 C.ar    1  UNL1        0.0030
     27 C          66.2049   92.8577   12.4982 C.ar    1  UNL1        0.0355
     28 C          65.6353   91.4701   12.5068 C.ar    1  UNL1       -0.0012
     29 C          66.6009   93.4978   11.2007 C.ar    1  UNL1        0.1622
     30 N          67.6282   92.8441   10.3246 N.ar    1  UNL1       -0.2250
     31 C          68.0241   93.4843    9.0272 C.ar    1  UNL1        0.1022
     32 C          67.3928   94.7782    8.6058 C.ar    1  UNL1        0.0414
     33 C          66.3656   95.4318    9.4819 C.ar    1  UNL1        0.1022
     34 N          65.9696   94.7916   10.7793 N.ar    1  UNL1       -0.2250
@<TRIPOS>BOND
     1     9    10    1
     2    10    11   ar
     3    11    12   ar
     4    12    13   ar
     5    13    17    1
     6    17    18   ar
     7    18    19   ar
     8    19    20   ar
     9    20    21   ar
    10    13    14   ar
    11    14     1    1
    12     1     2    2
    13     1     3   am
    14     3     4    1
    15     4     5    1
    16     5     6    1
    17     6     7    1
    18     7     8    1
    19     8    22    1
    20    22    23    1
    21    23    24   ar
    22    24    25   ar
    23    25    26   ar
    24    26    27   ar
    25    27    29    1
    26    29    30   ar
    27    30    31   ar
    28    31    32   ar
    29    32    33   ar
    30    33    34   ar
    31    27    28   ar
    32    14    15   ar
    33    15    16    1
    34    15    10   ar
    35    21    17   ar
    36     8     3    1
    37    28    23   ar
    38    34    29   ar
@<TRIPOS>MOLECULE
*****
 34 38 0 0 0
SMALL
GASTEIGER

@<TRIPOS>ATOM
      1 C          62.3245   84.9439   12.3075 C.2     1  UNL1        0.2528
      2 O          61.5914   86.0592   12.9922 O.2     1  UNL1       -0.2698
      3 N          62.6337   85.0376   10.8427 N.am    1  UNL1       -0.2722
      4 C          63.3668   83.9223   10.1581 C.3     1  UNL1        0.1257
      5 C          63.6759   84.0160    8.6933 C.3     1  UNL1        0.1637
      6 O          63.2519   85.2250    7.9131 O.3     1  UNL1       -0.3502
      7 C          62.5188   86.3402    8.5978 C.3     1  UNL1        0.1622
      8 C          62.2097   86.2466   10.0625 C.3     1  UNL1        0.1096
      9 C          62.6646   79.7797   12.7722 C.3     1  UNL1        0.0334
     10 C          62.9185   81.1528   13.3200 C.ar    1  UNL1        0.0059
     11 C          63.5963   81.3170   14.6480 C.ar    1  UNL1       -0.0004
     12 C          63.8502   82.6901   15.1959 C.ar    1  UNL1        0.0209
     13 C          63.4263   83.8990   14.4157 C.ar    1  UNL1        0.1094
     14 C          62.7485   83.7349   13.0877 C.ar    1  UNL1        0.1000
     15 C          62.4946   82.3618   12.5399 C.ar    1  UNL1        0.1420
     16 F          61.8167   82.1977   11.2118 F       1  UNL1       -0.2043
     17 N          63.6802   85.2721   14.9636 N.ar    1  UNL1       -0.1476
     18 N          63.0210   85.8768   16.1676 N.ar    1  UNL1       -0.1447
     19 C          63.5712   87.2601   16.3518 C.ar    1  UNL1        0.1446
     20 C          64.5705   87.5103   15.2615 C.ar    1  UNL1        0.1446
     21 N          64.6379   86.2817   14.4035 N.ar    1  UNL1       -0.1447
     22 C          61.4766   87.3618   10.7472 C.3     1  UNL1        0.0487
     23 C          62.0833   88.7323   10.8075 C.ar    1  UNL1       -0.0203
     24 C          62.0041   89.6406    9.6164 C.ar    1  UNL1       -0.0042
     25 C          62.6108   91.0111    9.6767 C.ar    1  UNL1       -0.0002
     26 C          63.2966   91.4734   10.9281 C.ar    1  UNL1        0.0030
     27 C          63.3757   90.5650   12.1192 C.ar    1  UNL1        0.0355
     28 C          62.7690   89.1945   12.0589 C.ar    1  UNL1       -0.0012
     29 C          64.0615   91.0273   13.3706 C.ar    1  UNL1        0.1622
     30 N          65.3998   91.6997   13.2879 N.ar    1  UNL1       -0.2250
     31 C          66.0856   92.1619   14.5393 C.ar    1  UNL1        0.1022
     32 C          65.4330   91.9517   15.8735 C.ar    1  UNL1        0.0414
     33 C          64.0948   91.2793   15.9562 C.ar    1  UNL1        0.1022
     34 N          63.4090   90.8171   14.7048 N.ar    1  UNL1       -0.2250
@<TRIPOS>BOND
     1     9    10    1
     2    10    11   ar
     3    11    12   ar
     4    12    13   ar
     5    13    17    1
     6    17    18   ar
     7    18    19   ar
     8    19    20   ar
     9    20    21   ar
    10    13    14   ar
    11    14     1    1
    12     1     2    2
    13     1     3   am
    14     3     4    1
    15     4     5    1
    16     5     6    1
    17     6     7    1
    18     7     8    1
    19     8    22    1
    20    22    23    1
    21    23    24   ar
    22    24    25   ar
    23    25    26   ar
    24    26    27   ar
    25    27    29    1
    26    29    30   ar
    27    30    31   ar
    28    31    32   ar
    29    32    33   ar
    30    33    34   ar
    31    27    28   ar
    32    14    15   ar
    33    15    16    1
    34    15    10   ar
    35    21    17   ar
    36     8     3    1
    37    28    23   ar
    38    34    29   ar
@<TRIPOS>MOLECULE
*****
 34 38 0 0 0
SMALL
GASTEIGER

@<TRIPOS>ATOM
      1 C          62.4222   87.9089   11.0676 C.2     1  UNL1        0.2528
      2 O          63.5247   88.5609   10.2869 O.2     1  UNL1       -0.2698
      3 N          61.1800   88.6814   11.3994 N.am    1  UNL1       -0.2722
      4 C          60.0775   88.0294   12.1800 C.3     1  UNL1        0.1257
      5 C          58.8351   88.8019   12.5118 C.3     1  UNL1        0.1637
      6 O          58.6954   90.2263   12.0628 O.3     1  UNL1       -0.3502
      7 C          59.7979   90.8782   11.2821 C.3     1  UNL1        0.1622
      8 C          61.0401   90.1058   10.9504 C.3     1  UNL1        0.1096
      9 C          64.0712   84.4327   14.5600 C.3     1  UNL1        0.0334
     10 C          63.3866   84.7464   13.2628 C.ar    1  UNL1        0.0059
     11 C          62.8417   83.6358   12.4145 C.ar    1  UNL1       -0.0004
     12 C          62.1571   83.9495   11.1173 C.ar    1  UNL1        0.0209
     13 C          62.0173   85.3739   10.6683 C.ar    1  UNL1        0.1094
     14 C          62.5621   86.4845   11.5166 C.ar    1  UNL1        0.1000
     15 C          63.2467   86.1708   12.8138 C.ar    1  UNL1        0.1420
     16 F          63.7915   87.2815   13.6621 F       1  UNL1       -0.2043
     17 N          61.3326   85.6876    9.3711 N.ar    1  UNL1       -0.1476
     18 N          60.0290   86.4131    9.2150 N.ar    1  UNL1       -0.1447
     19 C          59.7221   86.5048    7.7496 C.ar    1  UNL1        0.1446
     20 C          60.8359   85.8359    7.0000 C.ar    1  UNL1        0.1446
     21 N          61.8313   85.3309    8.0021 N.ar    1  UNL1       -0.1447
     22 C          62.1426   90.7578   10.1697 C.3     1  UNL1        0.0487
     23 C          63.2856   91.4112   10.8885 C.ar    1  UNL1       -0.0203
     24 C          63.6418   90.9791   12.2800 C.ar    1  UNL1       -0.0042
     25 C          64.7847   91.6326   12.9988 C.ar    1  UNL1       -0.0002
     26 C          65.5715   92.7182   12.3260 C.ar    1  UNL1        0.0030
     27 C          65.2152   93.1502   10.9344 C.ar    1  UNL1        0.0355
     28 C          64.0723   92.4968   10.2157 C.ar    1  UNL1       -0.0012
     29 C          66.0020   94.2358   10.2616 C.ar    1  UNL1        0.1622
     30 N          67.1306   93.8823    9.3389 N.ar    1  UNL1       -0.2250
     31 C          67.9173   94.9679    8.6662 C.ar    1  UNL1        0.1022
     32 C          67.5754   96.4069    8.9161 C.ar    1  UNL1        0.0414
     33 C          66.4468   96.7603    9.8387 C.ar    1  UNL1        0.1022
     34 N          65.6601   95.6748   10.5115 N.ar    1  UNL1       -0.2250
@<TRIPOS>BOND
     1     9    10    1
     2    10    11   ar
     3    11    12   ar
     4    12    13   ar
     5    13    17    1
     6    17    18   ar
     7    18    19   ar
     8    19    20   ar
     9    20    21   ar
    10    13    14   ar
    11    14     1    1
    12     1     2    2
    13     1     3   am
    14     3     4    1
    15     4     5    1
    16     5     6    1
    17     6     7    1
    18     7     8    1
    19     8    22    1
    20    22    23    1
    21    23    24   ar
    22    24    25   ar
    23    25    26   ar
    24    26    27   ar
    25    27    29    1
    26    29    30   ar
    27    30    31   ar
    28    31    32   ar
    29    32    33   ar
    30    33    34   ar
    31    27    28   ar
    32    14    15   ar
    33    15    16    1
    34    15    10   ar
    35    21    17   ar
    36     8     3    1
    37    28    23   ar
    38    34    29   ar
