@<TRIPOS>MOLECULE
*****
 34 39 0 0 0
SMALL
GASTEIGER

@<TRIPOS>ATOM
      1 F          62.8250   82.4769   10.1559 F       1  UNL1       -0.1816
      2 C          63.3840   82.7098   11.5282 C.ar    1  UNL1        0.2382
      3 N          63.9312   81.5596   12.3203 N.ar    1  UNL1       -0.2152
      4 C          64.4903   81.7925   13.6926 C.ar    1  UNL1        0.1014
      5 C          64.5022   83.1756   14.2727 C.ar    1  UNL1        0.0224
      6 C          63.9551   84.3259   13.4806 C.ar    1  UNL1        0.0256
      7 C          63.8339   85.7890   13.7883 C.ar    1  UNL1        0.0550
      8 C          64.2190   86.5967   14.9922 C.ar    1  UNL1        0.1048
      9 N          63.9701   88.0758   15.0139 N.ar    1  UNL1       -0.2119
     10 C          63.3362   88.7472   13.8318 C.ar    1  UNL1        0.2231
     11 N          62.9512   87.9395   12.6279 N.ar    1  UNL1       -0.1961
     12 C          63.2000   86.4604   12.6062 C.ar    1  UNL1        0.1482
     13 N          62.9294   85.4122   11.5679 N.ar    1  UNL1       -0.3114
     14 C          63.3960   84.0930   12.1083 C.ar    1  UNL1        0.1076
     15 C          62.3022   85.6426   10.2250 C.3     1  UNL1        0.0870
     16 C          62.9129   85.3052    8.8971 C.3     1  UNL1        0.0226
     17 C          61.9423   85.7050    7.8256 C.3     1  UNL1        0.0020
     18 C          60.7318   86.2895    8.4911 C.3     1  UNL1        0.0020
     19 C          60.9543   86.2509    9.9740 C.3     1  UNL1        0.0226
     20 N          63.0873   90.2262   13.8535 N.pl3   1  UNL1       -0.2679
     21 H          62.3953   90.6003   14.4455 H       1  UNL1        0.1565
     22 C          63.8928   91.1352   12.9734 C.ar    1  UNL1        0.1344
     23 C          63.6390   91.1666   11.4954 C.ar    1  UNL1        0.0358
     24 C          64.4446   92.0757   10.6151 C.ar    1  UNL1        0.0190
     25 C          65.5040   92.9534   11.2130 C.ar    1  UNL1        0.0675
     26 C          65.7578   92.9220   12.6911 C.ar    1  UNL1        0.1147
     27 N          64.9522   92.0129   13.5713 N.ar    1  UNL1       -0.2277
     28 N          66.3095   93.8625   10.3329 N.pl3   1  UNL1       -0.3035
     29 C          67.4505   93.3116    9.5300 C.3     1  UNL1        0.1079
     30 C          68.2560   94.2207    8.6499 C.3     1  UNL1        0.0903
     31 N          67.9206   95.6806    8.5727 N.3     1  UNL1       -0.2946
     32 C          66.7797   96.2315    9.3756 C.3     1  UNL1        0.0903
     33 C          65.9741   95.3225   10.2557 C.3     1  UNL1        0.1079
     34 H          67.7177   95.8847    7.5941 H       1  UNL1        0.1233
@<TRIPOS>BOND
     1     1     2    1
     2     2     3   ar
     3     3     4   ar
     4     4     5   ar
     5     5     6   ar
     6     6     7   ar
     7     7     8   ar
     8     8     9   ar
     9     9    10   ar
    10    10    20    1
    11    20    22    1
    12    22    23   ar
    13    23    24   ar
    14    24    25   ar
    15    25    28    1
    16    28    29    1
    17    29    30    1
    18    30    31    1
    19    31    32    1
    20    32    33    1
    21    25    26   ar
    22    26    27   ar
    23    10    11   ar
    24    11    12   ar
    25    12    13   ar
    26    13    15    1
    27    15    16    1
    28    16    17    1
    29    17    18    1
    30    18    19    1
    31    13    14   ar
    32    14     2   ar
    33    14     6   ar
    34    12     7   ar
    35    19    15    1
    36    27    22   ar
    37    33    28    1
    38    20    21    1
    39    31    34    1
@<TRIPOS>MOLECULE
*****
 34 39 0 0 0
SMALL
GASTEIGER

@<TRIPOS>ATOM
      1 F          63.2905   81.5562   14.5492 F       1  UNL1       -0.1816
      2 C          63.1337   81.6623   13.0612 C.ar    1  UNL1        0.2382
      3 N          63.1542   80.4242   12.2147 N.ar    1  UNL1       -0.2152
      4 C          62.9973   80.5303   10.7267 C.ar    1  UNL1        0.1014
      5 C          62.8200   81.8745   10.0852 C.ar    1  UNL1        0.0224
      6 C          62.7994   83.1126   10.9317 C.ar    1  UNL1        0.0256
      7 C          62.6423   84.5634   10.5844 C.ar    1  UNL1        0.0550
      8 C          62.4525   85.2667    9.2732 C.ar    1  UNL1        0.1048
      9 N          62.3225   86.7606    9.2354 N.ar    1  UNL1       -0.2119
     10 C          62.3822   87.5512   10.5087 C.ar    1  UNL1        0.2231
     11 N          62.5720   86.8478   11.8199 N.ar    1  UNL1       -0.1961
     12 C          62.7020   85.3539   11.8578 C.ar    1  UNL1        0.1482
     13 N          62.8961   84.3917   12.9920 N.ar    1  UNL1       -0.3114
     14 C          62.9563   83.0065   12.4197 C.ar    1  UNL1        0.1076
     15 C          63.0099   84.7515   14.4438 C.3     1  UNL1        0.0870
     16 C          61.9907   84.4637   15.5060 C.3     1  UNL1        0.0226
     17 C          62.5138   84.9966   16.8069 C.3     1  UNL1        0.0020
     18 C          63.8564   85.6138   16.5487 C.3     1  UNL1        0.0020
     19 C          64.1629   85.4622   15.0882 C.3     1  UNL1        0.0226
     20 N          62.2522   89.0451   10.4709 N.pl3   1  UNL1       -0.2679
     21 H          61.5867   89.4664    9.8802 H       1  UNL1        0.1565
     22 C          63.1360   89.8968   11.3330 C.ar    1  UNL1        0.1344
     23 C          63.7881   91.1203   10.7605 C.ar    1  UNL1        0.0358
     24 C          64.6720   91.9722   11.6227 C.ar    1  UNL1        0.0190
     25 C          64.9037   91.6004   13.0573 C.ar    1  UNL1        0.0675
     26 C          64.2516   90.3769   13.6298 C.ar    1  UNL1        0.1147
     27 N          63.3677   89.5251   12.7676 N.ar    1  UNL1       -0.2277
     28 N          65.7875   92.4522   13.9195 N.pl3   1  UNL1       -0.3035
     29 C          66.1326   92.0075   15.3098 C.3     1  UNL1        0.1079
     30 C          67.0164   92.8592   16.1720 C.3     1  UNL1        0.0903
     31 N          67.5552   94.1556   15.6438 N.3     1  UNL1       -0.2946
     32 C          67.2101   94.6003   14.2535 C.3     1  UNL1        0.0903
     33 C          66.3263   93.7486   13.3913 C.3     1  UNL1        0.1079
     34 H          68.5722   94.0919   15.6887 H       1  UNL1        0.1233
@<TRIPOS>BOND
     1     1     2    1
     2     2     3   ar
     3     3     4   ar
     4     4     5   ar
     5     5     6   ar
     6     6     7   ar
     7     7     8   ar
     8     8     9   ar
     9     9    10   ar
    10    10    20    1
    11    20    22    1
    12    22    23   ar
    13    23    24   ar
    14    24    25   ar
    15    25    28    1
    16    28    29    1
    17    29    30    1
    18    30    31    1
    19    31    32    1
    20    32    33    1
    21    25    26   ar
    22    26    27   ar
    23    10    11   ar
    24    11    12   ar
    25    12    13   ar
    26    13    15    1
    27    15    16    1
    28    16    17    1
    29    17    18    1
    30    18    19    1
    31    13    14   ar
    32    14     2   ar
    33    14     6   ar
    34    12     7   ar
    35    19    15    1
    36    27    22   ar
    37    33    28    1
    38    20    21    1
    39    31    34    1
