@<TRIPOS>MOLECULE
*****
 31 34 0 0 0
SMALL
GASTEIGER

@<TRIPOS>ATOM
      1 C          62.6259   84.2434   11.4687 C.3     1  UNL1        0.0061
      2 C          63.2577   83.9966   12.8066 C.3     1  UNL1        0.0373
      3 C          63.8348   83.2591   13.9783 C.3     1  UNL1        0.0075
      4 C          64.3496   84.0202   15.1640 C.3     1  UNL1        0.0219
      5 C          64.2872   85.5189   15.1779 C.3     1  UNL1        0.0950
      6 N          63.7100   86.2564   14.0062 N.am    1  UNL1       -0.2639
      7 C          63.6476   87.7551   14.0201 C.2     1  UNL1        0.3042
      8 O          63.0705   88.4925   12.8483 O.2     1  UNL1       -0.2526
      9 N          64.1624   88.5161   15.2057 N.am    1  UNL1       -0.2847
     10 C          63.1953   85.4953   12.8205 C.3     1  UNL1        0.0989
     11 H          64.5412   88.0321   15.9748 H       1  UNL1        0.1513
     12 C          63.1007   82.5837   12.3280 C.ar    1  UNL1       -0.0212
     13 C          62.5943   81.5266   13.2641 C.ar    1  UNL1       -0.0042
     14 C          62.4373   80.1138   12.7855 C.ar    1  UNL1       -0.0003
     15 C          62.7867   79.7579   11.3708 C.ar    1  UNL1       -0.0000
     16 C          63.2931   80.8149   10.4348 C.ar    1  UNL1       -0.0003
     17 C          63.4501   82.2278   10.9134 C.ar    1  UNL1       -0.0042
     18 C          64.1000   90.0148   15.2195 C.3     1  UNL1        0.1177
     19 C          64.7545   90.8028   14.1237 C.ar    1  UNL1       -0.0025
     20 C          63.9734   91.1753   12.8984 C.ar    1  UNL1       -0.0026
     21 C          64.6280   91.9632   11.8026 C.ar    1  UNL1       -0.0003
     22 C          66.0634   92.3787   11.9321 C.ar    1  UNL1        0.0000
     23 C          66.8444   92.0062   13.1574 C.ar    1  UNL1       -0.0003
     24 C          66.1899   91.2182   14.2532 C.ar    1  UNL1       -0.0026
     25 C          66.7179   93.1667   10.8363 C.ar    1  UNL1        0.0008
     26 C          67.7080   92.5042    9.9248 C.ar    1  UNL1        0.0001
     27 C          68.3626   93.2921    8.8290 C.ar    1  UNL1        0.0009
     28 C          68.0271   94.7425    8.6448 C.ar    1  UNL1        0.0114
     29 C          67.0370   95.4049    9.5563 C.ar    1  UNL1        0.0577
     30 CL         66.7015   96.8553    9.3721 Cl      1  UNL1       -0.0822
     31 C          66.3825   94.6170   10.6521 C.ar    1  UNL1        0.0114
@<TRIPOS>BOND
     1     1     2    1
     2     2    12    1
     3    12    13   ar
     4    13    14   ar
     5    14    15   ar
     6    15    16   ar
     7    16    17   ar
     8     2     3    1
     9     3     4    1
    10     4     5    1
    11     5     6    1
    12     6     7   am
    13     7     8    2
    14     7     9   am
    15     9    18    1
    16    18    19    1
    17    19    20   ar
    18    20    21   ar
    19    21    22   ar
    20    22    25    1
    21    25    26   ar
    22    26    27   ar
    23    27    28   ar
    24    28    29   ar
    25    29    30    1
    26    29    31   ar
    27    22    23   ar
    28    23    24   ar
    29     6    10    1
    30    10     2    1
    31    17    12   ar
    32    24    19   ar
    33    31    25   ar
    34     9    11    1
@<TRIPOS>MOLECULE
*****
 31 34 0 0 0
SMALL
GASTEIGER

@<TRIPOS>ATOM
      1 C          64.8978   92.3891   10.9124 C.3     1  UNL1        0.0061
      2 C          65.7101   92.7564   12.1188 C.3     1  UNL1        0.0373
      3 C          66.7407   93.4365   12.9703 C.3     1  UNL1        0.0075
      4 C          66.8604   93.0884   14.4245 C.3     1  UNL1        0.0219
      5 C          65.9495   92.0602   15.0270 C.3     1  UNL1        0.0950
      6 N          64.9189   91.3801   14.1754 N.am    1  UNL1       -0.2639
      7 C          64.0080   90.3518   14.7779 C.2     1  UNL1        0.3042
      8 O          62.9774   89.6718   13.9263 O.2     1  UNL1       -0.2526
      9 N          64.1277   90.0037   16.2321 N.am    1  UNL1       -0.2847
     10 C          64.7991   91.7282   12.7213 C.3     1  UNL1        0.0989
     11 H          64.8042   90.4501   16.7910 H       1  UNL1        0.1513
     12 C          66.3389   93.6571   11.0972 C.ar    1  UNL1       -0.0212
     13 C          66.1198   95.1393   11.1679 C.ar    1  UNL1       -0.0042
     14 C          66.7486   96.0399   10.1464 C.ar    1  UNL1       -0.0003
     15 C          67.5965   95.4582    9.0542 C.ar    1  UNL1       -0.0000
     16 C          67.8156   93.9760    8.9836 C.ar    1  UNL1       -0.0003
     17 C          67.1868   93.0755   10.0051 C.ar    1  UNL1       -0.0042
     18 C          63.2168   88.9755   16.8345 C.3     1  UNL1        0.1177
     19 C          63.1797   87.5851   16.2727 C.ar    1  UNL1       -0.0025
     20 C          62.2203   86.5761   16.8307 C.ar    1  UNL1       -0.0026
     21 C          62.1833   85.1858   16.2688 C.ar    1  UNL1       -0.0003
     22 C          63.1056   84.8045   15.1491 C.ar    1  UNL1        0.0000
     23 C          64.0650   85.8136   14.5911 C.ar    1  UNL1       -0.0003
     24 C          64.1021   87.2039   15.1530 C.ar    1  UNL1       -0.0026
     25 C          63.0686   83.4142   14.5872 C.ar    1  UNL1        0.0008
     26 C          64.2917   82.8334   13.9417 C.ar    1  UNL1        0.0001
     27 C          64.2547   81.4431   13.3798 C.ar    1  UNL1        0.0009
     28 C          62.9947   80.6336   13.4634 C.ar    1  UNL1        0.0114
     29 C          61.7716   81.2144   14.1089 C.ar    1  UNL1        0.0577
     30 CL         60.5116   80.4049   14.1925 Cl      1  UNL1       -0.0822
     31 C          61.8086   82.6047   14.6708 C.ar    1  UNL1        0.0114
@<TRIPOS>BOND
     1     1     2    1
     2     2    12    1
     3    12    13   ar
     4    13    14   ar
     5    14    15   ar
     6    15    16   ar
     7    16    17   ar
     8     2     3    1
     9     3     4    1
    10     4     5    1
    11     5     6    1
    12     6     7   am
    13     7     8    2
    14     7     9   am
    15     9    18    1
    16    18    19    1
    17    19    20   ar
    18    20    21   ar
    19    21    22   ar
    20    22    25    1
    21    25    26   ar
    22    26    27   ar
    23    27    28   ar
    24    28    29   ar
    25    29    30    1
    26    29    31   ar
    27    22    23   ar
    28    23    24   ar
    29     6    10    1
    30    10     2    1
    31    17    12   ar
    32    24    19   ar
    33    31    25   ar
    34     9    11    1
@<TRIPOS>MOLECULE
*****
 31 34 0 0 0
SMALL
GASTEIGER

@<TRIPOS>ATOM
      1 C          64.1484   82.4436   13.5447 C.3     1  UNL1        0.0061
      2 C          63.3027   83.1645   12.5372 C.3     1  UNL1        0.0373
      3 C          62.3791   83.3934   11.3777 C.3     1  UNL1        0.0075
      4 C          61.9735   84.7888   11.0060 C.3     1  UNL1        0.0219
      5 C          62.4915   85.9555   11.7938 C.3     1  UNL1        0.0950
      6 N          63.4151   85.7266   12.9533 N.am    1  UNL1       -0.2639
      7 C          63.9332   86.8932   13.7412 C.2     1  UNL1        0.3042
      8 O          64.8568   86.6643   14.9007 O.2     1  UNL1       -0.2526
      9 N          63.5276   88.2887   13.3695 N.am    1  UNL1       -0.2847
     10 C          63.8207   84.3312   13.3251 C.3     1  UNL1        0.0989
     11 H          62.9214   88.4389   12.6084 H       1  UNL1        0.1513
     12 C          63.0784   81.7475   12.0993 C.ar    1  UNL1       -0.0212
     13 C          63.2425   81.3737   10.6559 C.ar    1  UNL1       -0.0042
     14 C          63.0182   79.9567   10.2180 C.ar    1  UNL1       -0.0003
     15 C          62.6298   78.9135   11.2235 C.ar    1  UNL1       -0.0000
     16 C          62.4657   79.2873   12.6668 C.ar    1  UNL1       -0.0003
     17 C          62.6900   80.7043   13.1047 C.ar    1  UNL1       -0.0042
     18 C          64.0456   89.4552   14.1574 C.3     1  UNL1        0.1177
     19 C          64.5682   90.6680   13.4458 C.ar    1  UNL1       -0.0025
     20 C          64.0061   91.0540   12.1097 C.ar    1  UNL1       -0.0026
     21 C          64.5287   92.2668   11.3983 C.ar    1  UNL1       -0.0003
     22 C          65.6133   93.0935   12.0229 C.ar    1  UNL1        0.0000
     23 C          66.1753   92.7074   13.3590 C.ar    1  UNL1       -0.0003
     24 C          65.6527   91.4947   14.0704 C.ar    1  UNL1       -0.0026
     25 C          66.1359   94.3063   11.3115 C.ar    1  UNL1        0.0008
     26 C          66.1267   95.6402   11.9975 C.ar    1  UNL1        0.0001
     27 C          66.6493   96.8529   11.2861 C.ar    1  UNL1        0.0009
     28 C          67.1810   96.7319    9.8888 C.ar    1  UNL1        0.0114
     29 C          67.1902   95.3979    9.2028 C.ar    1  UNL1        0.0577
     30 CL         67.7220   95.2769    7.8055 Cl      1  UNL1       -0.0822
     31 C          66.6676   94.1852    9.9142 C.ar    1  UNL1        0.0114
@<TRIPOS>BOND
     1     1     2    1
     2     2    12    1
     3    12    13   ar
     4    13    14   ar
     5    14    15   ar
     6    15    16   ar
     7    16    17   ar
     8     2     3    1
     9     3     4    1
    10     4     5    1
    11     5     6    1
    12     6     7   am
    13     7     8    2
    14     7     9   am
    15     9    18    1
    16    18    19    1
    17    19    20   ar
    18    20    21   ar
    19    21    22   ar
    20    22    25    1
    21    25    26   ar
    22    26    27   ar
    23    27    28   ar
    24    28    29   ar
    25    29    30    1
    26    29    31   ar
    27    22    23   ar
    28    23    24   ar
    29     6    10    1
    30    10     2    1
    31    17    12   ar
    32    24    19   ar
    33    31    25   ar
    34     9    11    1
@<TRIPOS>MOLECULE
*****
 31 34 0 0 0
SMALL
GASTEIGER

@<TRIPOS>ATOM
      1 C          59.0309   93.8062    1.0834 C.3     1  UNL1        0.0061
      2 C          60.4153   93.3992    1.4932 C.3     1  UNL1        0.0373
      3 C          61.9098   93.2730    1.4783 C.3     1  UNL1        0.0075
      4 C          62.6062   92.4794    2.5438 C.3     1  UNL1        0.0219
      5 C          61.8078   91.8119    3.6242 C.3     1  UNL1        0.0950
      6 N          60.3133   91.9381    3.6391 N.am    1  UNL1       -0.2639
      7 C          59.5149   91.2706    4.7194 C.2     1  UNL1        0.3042
      8 O          58.0203   91.3967    4.7342 O.2     1  UNL1       -0.2526
      9 N          60.2112   90.4769    5.7849 N.am    1  UNL1       -0.2847
     10 C          59.6169   92.7317    2.5736 C.3     1  UNL1        0.0989
     11 H          61.1922   90.3941    5.7752 H       1  UNL1        0.1513
     12 C          60.7328   94.2081    0.2705 C.ar    1  UNL1       -0.0212
     13 C          60.6338   93.5825   -1.0892 C.ar    1  UNL1       -0.0042
     14 C          60.9513   94.3914   -2.3118 C.ar    1  UNL1       -0.0003
     15 C          61.3678   95.8258   -2.1748 C.ar    1  UNL1       -0.0000
     16 C          61.4669   96.4514   -0.8151 C.ar    1  UNL1       -0.0003
     17 C          61.1494   95.6425    0.4075 C.ar    1  UNL1       -0.0042
     18 C          59.4129   89.8095    6.8652 C.3     1  UNL1        0.1177
     19 C          60.0623   88.7958    7.7602 C.ar    1  UNL1       -0.0025
     20 C          59.8791   87.3314    7.4917 C.ar    1  UNL1       -0.0026
     21 C          60.5285   86.3179    8.3867 C.ar    1  UNL1       -0.0003
     22 C          61.3611   86.7687    9.5501 C.ar    1  UNL1        0.0000
     23 C          61.5442   88.2331    9.8186 C.ar    1  UNL1       -0.0003
     24 C          60.8948   89.2466    8.9236 C.ar    1  UNL1       -0.0026
     25 C          62.0105   85.7552   10.4451 C.ar    1  UNL1        0.0008
     26 C          61.8091   85.8273   11.9298 C.ar    1  UNL1        0.0001
     27 C          62.4586   84.8138   12.8248 C.ar    1  UNL1        0.0009
     28 C          63.3093   83.7282   12.2352 C.ar    1  UNL1        0.0114
     29 C          63.5107   83.6561   10.7505 C.ar    1  UNL1        0.0577
     30 CL         64.3614   82.5705   10.1610 Cl      1  UNL1       -0.0822
     31 C          62.8613   84.6696    9.8555 C.ar    1  UNL1        0.0114
@<TRIPOS>BOND
     1     1     2    1
     2     2    12    1
     3    12    13   ar
     4    13    14   ar
     5    14    15   ar
     6    15    16   ar
     7    16    17   ar
     8     2     3    1
     9     3     4    1
    10     4     5    1
    11     5     6    1
    12     6     7   am
    13     7     8    2
    14     7     9   am
    15     9    18    1
    16    18    19    1
    17    19    20   ar
    18    20    21   ar
    19    21    22   ar
    20    22    25    1
    21    25    26   ar
    22    26    27   ar
    23    27    28   ar
    24    28    29   ar
    25    29    30    1
    26    29    31   ar
    27    22    23   ar
    28    23    24   ar
    29     6    10    1
    30    10     2    1
    31    17    12   ar
    32    24    19   ar
    33    31    25   ar
    34     9    11    1
@<TRIPOS>MOLECULE
*****
 31 34 0 0 0
SMALL
GASTEIGER

@<TRIPOS>ATOM
      1 C          61.9760   86.2356   11.8825 C.3     1  UNL1        0.0061
      2 C          62.1211   85.6140   10.5251 C.3     1  UNL1        0.0373
      3 C          62.5199   84.6403    9.4561 C.3     1  UNL1        0.0075
      4 C          62.1380   84.8962    8.0283 C.3     1  UNL1        0.0219
      5 C          61.3573   86.1258    7.6695 C.3     1  UNL1        0.0950
      6 N          60.9586   87.0995    8.7385 N.am    1  UNL1       -0.2639
      7 C          60.1779   88.3291    8.3798 C.2     1  UNL1        0.3042
      8 O          59.7792   89.3027    9.4489 O.2     1  UNL1       -0.2526
      9 N          59.7960   88.5850    6.9520 N.am    1  UNL1       -0.2847
     10 C          61.3405   86.8436   10.1664 C.3     1  UNL1        0.0989
     11 H          60.0577   87.9459    6.2503 H       1  UNL1        0.1513
     12 C          62.8514   84.6002   11.3553 C.ar    1  UNL1       -0.0212
     13 C          62.7245   84.6229   12.8497 C.ar    1  UNL1       -0.0042
     14 C          63.4547   83.6093   13.6799 C.ar    1  UNL1       -0.0003
     15 C          64.3119   82.5729   13.0156 C.ar    1  UNL1       -0.0000
     16 C          64.4388   82.5502   11.5212 C.ar    1  UNL1       -0.0003
     17 C          63.7085   83.5639   10.6910 C.ar    1  UNL1       -0.0042
     18 C          59.0154   89.8145    6.5933 C.3     1  UNL1        0.1177
     19 C          59.4959   90.7135    5.4927 C.ar    1  UNL1       -0.0025
     20 C          58.5307   91.6232    4.7921 C.ar    1  UNL1       -0.0026
     21 C          59.0113   92.5220    3.6916 C.ar    1  UNL1       -0.0003
     22 C          60.4569   92.5112    3.2917 C.ar    1  UNL1        0.0000
     23 C          61.4221   91.6014    3.9923 C.ar    1  UNL1       -0.0003
     24 C          60.9415   90.7026    5.0928 C.ar    1  UNL1       -0.0026
     25 C          60.9375   93.4100    2.1912 C.ar    1  UNL1        0.0008
     26 C          60.1187   94.5985    1.7821 C.ar    1  UNL1        0.0001
     27 C          60.5993   95.4973    0.6816 C.ar    1  UNL1        0.0009
     28 C          61.8985   95.2078   -0.0098 C.ar    1  UNL1        0.0114
     29 C          62.7173   94.0193    0.3992 C.ar    1  UNL1        0.0577
     30 CL         64.0165   93.7298   -0.2923 Cl      1  UNL1       -0.0822
     31 C          62.2367   93.1205    1.4997 C.ar    1  UNL1        0.0114
@<TRIPOS>BOND
     1     1     2    1
     2     2    12    1
     3    12    13   ar
     4    13    14   ar
     5    14    15   ar
     6    15    16   ar
     7    16    17   ar
     8     2     3    1
     9     3     4    1
    10     4     5    1
    11     5     6    1
    12     6     7   am
    13     7     8    2
    14     7     9   am
    15     9    18    1
    16    18    19    1
    17    19    20   ar
    18    20    21   ar
    19    21    22   ar
    20    22    25    1
    21    25    26   ar
    22    26    27   ar
    23    27    28   ar
    24    28    29   ar
    25    29    30    1
    26    29    31   ar
    27    22    23   ar
    28    23    24   ar
    29     6    10    1
    30    10     2    1
    31    17    12   ar
    32    24    19   ar
    33    31    25   ar
    34     9    11    1
@<TRIPOS>MOLECULE
*****
 31 34 0 0 0
SMALL
GASTEIGER

@<TRIPOS>ATOM
      1 C          59.2324   93.5801    1.6265 C.3     1  UNL1        0.0061
      2 C          60.6031   93.0750    1.9675 C.3     1  UNL1        0.0373
      3 C          62.0848   92.8558    1.8873 C.3     1  UNL1        0.0075
      4 C          62.7707   91.9889    2.9012 C.3     1  UNL1        0.0219
      5 C          61.9747   91.3412    3.9953 C.3     1  UNL1        0.0950
      6 N          60.4931   91.5603    4.0755 N.am    1  UNL1       -0.2639
      7 C          59.6971   90.9126    5.1696 C.2     1  UNL1        0.3042
      8 O          58.2154   91.1318    5.2497 O.2     1  UNL1       -0.2526
      9 N          60.3830   90.0456    6.1835 N.am    1  UNL1       -0.2847
     10 C          59.8072   92.4273    3.0616 C.3     1  UNL1        0.0989
     11 H          61.3555   89.9018    6.1309 H       1  UNL1        0.1513
     12 C          60.9229   93.8982    0.7549 C.ar    1  UNL1       -0.0212
     13 C          61.2842   95.3462    0.9055 C.ar    1  UNL1       -0.0042
     14 C          61.6040   96.1693   -0.3070 C.ar    1  UNL1       -0.0003
     15 C          61.5626   95.5444   -1.6700 C.ar    1  UNL1       -0.0000
     16 C          61.2013   94.0964   -1.8205 C.ar    1  UNL1       -0.0003
     17 C          60.8815   93.2733   -0.6081 C.ar    1  UNL1       -0.0042
     18 C          59.5871   89.3979    7.2775 C.3     1  UNL1        0.1177
     19 C          60.2269   88.3694    8.1623 C.ar    1  UNL1       -0.0025
     20 C          60.7395   88.7598    9.5170 C.ar    1  UNL1       -0.0026
     21 C          61.3793   87.7313   10.4017 C.ar    1  UNL1       -0.0003
     22 C          61.5066   86.3125    9.9319 C.ar    1  UNL1        0.0000
     23 C          60.9940   85.9221    8.5772 C.ar    1  UNL1       -0.0003
     24 C          60.3542   86.9507    7.6925 C.ar    1  UNL1       -0.0026
     25 C          62.1464   85.2839   10.8166 C.ar    1  UNL1        0.0008
     26 C          62.9174   84.1488   10.2108 C.ar    1  UNL1        0.0001
     27 C          63.5572   83.1202   11.0955 C.ar    1  UNL1        0.0009
     28 C          63.4261   83.2268   12.5859 C.ar    1  UNL1        0.0114
     29 C          62.6551   84.3620   13.1917 C.ar    1  UNL1        0.0577
     30 CL         62.5240   84.4685   14.6822 Cl      1  UNL1       -0.0822
     31 C          62.0153   85.3905   12.3070 C.ar    1  UNL1        0.0114
@<TRIPOS>BOND
     1     1     2    1
     2     2    12    1
     3    12    13   ar
     4    13    14   ar
     5    14    15   ar
     6    15    16   ar
     7    16    17   ar
     8     2     3    1
     9     3     4    1
    10     4     5    1
    11     5     6    1
    12     6     7   am
    13     7     8    2
    14     7     9   am
    15     9    18    1
    16    18    19    1
    17    19    20   ar
    18    20    21   ar
    19    21    22   ar
    20    22    25    1
    21    25    26   ar
    22    26    27   ar
    23    27    28   ar
    24    28    29   ar
    25    29    30    1
    26    29    31   ar
    27    22    23   ar
    28    23    24   ar
    29     6    10    1
    30    10     2    1
    31    17    12   ar
    32    24    19   ar
    33    31    25   ar
    34     9    11    1
@<TRIPOS>MOLECULE
*****
 31 34 0 0 0
SMALL
GASTEIGER

@<TRIPOS>ATOM
      1 C          67.2145   93.6659   12.2409 C.3     1  UNL1        0.0061
      2 C          65.9893   93.1866   11.5205 C.3     1  UNL1        0.0373
      3 C          64.9018   93.1031   10.4907 C.3     1  UNL1        0.0075
      4 C          63.8432   92.0463   10.6018 C.3     1  UNL1        0.0219
      5 C          63.8721   91.0729   11.7428 C.3     1  UNL1        0.0950
      6 N          64.9595   91.1563   12.7725 N.am    1  UNL1       -0.2639
      7 C          64.9884   90.1829   13.9134 C.2     1  UNL1        0.3042
      8 O          66.0759   90.2664   14.9432 O.2     1  UNL1       -0.2526
      9 N          63.9298   89.1260   14.0246 N.am    1  UNL1       -0.2847
     10 C          66.0181   92.2132   12.6614 C.3     1  UNL1        0.0989
     11 H          63.2160   89.0712   13.3487 H       1  UNL1        0.1513
     12 C          66.3860   94.3265   10.6297 C.ar    1  UNL1       -0.0212
     13 C          65.9085   95.7159   10.9322 C.ar    1  UNL1       -0.0042
     14 C          66.3052   96.8557   10.0415 C.ar    1  UNL1       -0.0003
     15 C          67.1794   96.6062    8.8484 C.ar    1  UNL1       -0.0000
     16 C          67.6568   95.2167    8.5459 C.ar    1  UNL1       -0.0003
     17 C          67.2601   94.0769    9.4366 C.ar    1  UNL1       -0.0042
     18 C          63.9587   88.1527   15.1655 C.3     1  UNL1        0.1177
     19 C          63.6237   86.7097   14.9289 C.ar    1  UNL1       -0.0025
     20 C          63.2404   85.8300   16.0819 C.ar    1  UNL1       -0.0026
     21 C          62.9055   84.3872   15.8453 C.ar    1  UNL1       -0.0003
     22 C          62.9538   83.8240   14.4559 C.ar    1  UNL1        0.0000
     23 C          63.3370   84.7038   13.3030 C.ar    1  UNL1       -0.0003
     24 C          63.6720   86.1467   13.5396 C.ar    1  UNL1       -0.0026
     25 C          62.6188   82.3812   14.2193 C.ar    1  UNL1        0.0008
     26 C          63.6955   81.4178   13.8161 C.ar    1  UNL1        0.0001
     27 C          63.3606   79.9749   13.5795 C.ar    1  UNL1        0.0009
     28 C          61.9491   79.4955   13.7461 C.ar    1  UNL1        0.0114
     29 C          60.8724   80.4589   14.1493 C.ar    1  UNL1        0.0577
     30 CL         59.4609   79.9795   14.3160 Cl      1  UNL1       -0.0822
     31 C          61.2073   81.9018   14.3859 C.ar    1  UNL1        0.0114
@<TRIPOS>BOND
     1     1     2    1
     2     2    12    1
     3    12    13   ar
     4    13    14   ar
     5    14    15   ar
     6    15    16   ar
     7    16    17   ar
     8     2     3    1
     9     3     4    1
    10     4     5    1
    11     5     6    1
    12     6     7   am
    13     7     8    2
    14     7     9   am
    15     9    18    1
    16    18    19    1
    17    19    20   ar
    18    20    21   ar
    19    21    22   ar
    20    22    25    1
    21    25    26   ar
    22    26    27   ar
    23    27    28   ar
    24    28    29   ar
    25    29    30    1
    26    29    31   ar
    27    22    23   ar
    28    23    24   ar
    29     6    10    1
    30    10     2    1
    31    17    12   ar
    32    24    19   ar
    33    31    25   ar
    34     9    11    1
