@<TRIPOS>MOLECULE
*****
 31 34 0 0 0
SMALL
GASTEIGER

@<TRIPOS>ATOM
      1 C          64.7673   88.0525   14.7362 C.3     1  UNL1        0.0328
      2 C          64.0168   88.7075   13.6146 C.ar    1  UNL1        0.0002
      3 C          64.0850   90.1951   13.4347 C.ar    1  UNL1        0.0774
      4 N          63.3346   90.8501   12.3132 N.ar    1  UNL1       -0.2457
      5 C          62.5159   90.0175   11.3716 C.ar    1  UNL1        0.0814
      6 C          61.7654   90.6724   10.2501 C.ar    1  UNL1        0.0196
      7 C          60.9468   89.8398    9.3086 C.ar    1  UNL1        0.0082
      8 C          60.8785   88.3522    9.4885 C.ar    1  UNL1        0.0347
      9 BR         60.0598   87.5196    8.5470 Br      1  UNL1       -0.0490
     10 C          61.6290   87.6972   10.6100 C.ar    1  UNL1        0.0083
     11 C          62.4476   88.5298   11.5515 C.ar    1  UNL1        0.0223
     12 C          63.1981   87.8749   12.6731 C.ar    1  UNL1        0.0526
     13 C          64.9038   91.0277   14.3763 C.ar    1  UNL1        0.0173
     14 C          64.3205   91.4729   15.6845 C.ar    1  UNL1        0.0015
     15 C          65.1392   92.3055   16.6260 C.ar    1  UNL1        0.0000
     16 C          66.5412   92.6928   16.2593 C.ar    1  UNL1        0.0000
     17 C          67.1244   92.2475   14.9511 C.ar    1  UNL1        0.0000
     18 C          66.3057   91.4150   14.0095 C.ar    1  UNL1        0.0015
     19 C          63.1299   86.3873   12.8531 C.2     1  UNL1        0.2493
     20 O          63.1980   85.7944   14.2292 O.2     1  UNL1       -0.2698
     21 N          62.9936   85.4925   11.6568 N.am    1  UNL1       -0.2804
     22 H          62.9490   85.8817   10.7536 H       1  UNL1        0.1552
     23 C          62.9254   84.0049   11.8368 C.ar    1  UNL1        0.0505
     24 C          62.4053   83.4278   13.1199 C.ar    1  UNL1        0.0147
     25 C          62.3371   81.9402   13.2998 C.ar    1  UNL1        0.0024
     26 C          62.7889   81.0297   12.1967 C.ar    1  UNL1        0.0141
     27 C          63.3091   81.6069   10.9135 C.ar    1  UNL1        0.0024
     28 C          63.3773   83.0945   10.7336 C.ar    1  UNL1        0.0147
     29 C          62.7207   79.5421   12.3767 C.2     1  UNL1        0.0729
     30 O          62.6673   78.6432   11.1770 O.co2   1  UNL1       -0.5446
     31 O          62.7059   78.9535   13.7562 O.co2   1  UNL1       -0.5446
@<TRIPOS>UNITY_ATOM_ATTR
30 1
charge -1
@<TRIPOS>BOND
     1     1     2    1
     2     2     3   ar
     3     3    13    1
     4    13    14   ar
     5    14    15   ar
     6    15    16   ar
     7    16    17   ar
     8    17    18   ar
     9     3     4   ar
    10     4     5   ar
    11     5     6   ar
    12     6     7   ar
    13     7     8   ar
    14     8     9    1
    15     8    10   ar
    16    10    11   ar
    17    11    12   ar
    18    12    19    1
    19    19    20    2
    20    19    21   am
    21    21    23    1
    22    23    24   ar
    23    24    25   ar
    24    25    26   ar
    25    26    29    1
    26    29    30   ar
    27    29    31   ar
    28    26    27   ar
    29    27    28   ar
    30    12     2   ar
    31    28    23   ar
    32    18    13   ar
    33    11     5   ar
    34    21    22    1
@<TRIPOS>MOLECULE
*****
 31 34 0 0 0
SMALL
GASTEIGER

@<TRIPOS>ATOM
      1 C          61.6985   84.2502   10.5768 C.3     1  UNL1        0.0328
      2 C          62.3813   84.9871   11.6908 C.ar    1  UNL1        0.0002
      3 C          62.8871   84.2366   12.8870 C.ar    1  UNL1        0.0774
      4 N          63.5699   84.9734   14.0010 N.ar    1  UNL1       -0.2457
      5 C          63.7468   86.4607   13.9188 C.ar    1  UNL1        0.0814
      6 C          64.4296   87.1974   15.0328 C.ar    1  UNL1        0.0196
      7 C          64.6065   88.6846   14.9505 C.ar    1  UNL1        0.0082
      8 C          64.1007   89.4351   13.7543 C.ar    1  UNL1        0.0347
      9 BR         64.2777   90.9224   13.6721 Br      1  UNL1       -0.0490
     10 C          63.4180   88.6984   12.6403 C.ar    1  UNL1        0.0083
     11 C          63.2410   87.2111   12.7226 C.ar    1  UNL1        0.0223
     12 C          62.5582   86.4743   11.6085 C.ar    1  UNL1        0.0526
     13 C          62.7101   82.7493   12.9692 C.ar    1  UNL1        0.0173
     14 C          61.9680   82.1450   14.1242 C.ar    1  UNL1        0.0015
     15 C          61.7910   80.6578   14.2063 C.ar    1  UNL1        0.0000
     16 C          62.3563   79.7748   13.1335 C.ar    1  UNL1        0.0000
     17 C          63.0984   80.3791   11.9786 C.ar    1  UNL1        0.0000
     18 C          63.2754   81.8663   11.8964 C.ar    1  UNL1        0.0015
     19 C          62.0524   87.2248   10.4123 C.2     1  UNL1        0.2493
     20 O          63.0083   87.6632    9.3427 O.2     1  UNL1       -0.2698
     21 N          60.5907   87.5368   10.2857 N.am    1  UNL1       -0.2804
     22 H          59.9633   87.2491   10.9877 H       1  UNL1        0.1552
     23 C          60.0849   88.2873    9.0895 C.ar    1  UNL1        0.0505
     24 C          60.4493   89.7299    8.9000 C.ar    1  UNL1        0.0147
     25 C          59.9435   90.4804    7.7038 C.ar    1  UNL1        0.0024
     26 C          59.0732   89.7882    6.6971 C.ar    1  UNL1        0.0141
     27 C          58.7087   88.3455    6.8865 C.ar    1  UNL1        0.0024
     28 C          59.2145   87.5951    8.0828 C.ar    1  UNL1        0.0147
     29 C          58.5674   90.5387    5.5008 C.2     1  UNL1        0.0729
     30 O          57.0930   90.6261    5.2386 O.co2   1  UNL1       -0.5446
     31 O          59.5359   91.2017    4.5668 O.co2   1  UNL1       -0.5446
@<TRIPOS>UNITY_ATOM_ATTR
30 1
charge -1
@<TRIPOS>BOND
     1     1     2    1
     2     2     3   ar
     3     3    13    1
     4    13    14   ar
     5    14    15   ar
     6    15    16   ar
     7    16    17   ar
     8    17    18   ar
     9     3     4   ar
    10     4     5   ar
    11     5     6   ar
    12     6     7   ar
    13     7     8   ar
    14     8     9    1
    15     8    10   ar
    16    10    11   ar
    17    11    12   ar
    18    12    19    1
    19    19    20    2
    20    19    21   am
    21    21    23    1
    22    23    24   ar
    23    24    25   ar
    24    25    26   ar
    25    26    29    1
    26    29    30   ar
    27    29    31   ar
    28    26    27   ar
    29    27    28   ar
    30    12     2   ar
    31    28    23   ar
    32    18    13   ar
    33    11     5   ar
    34    21    22    1
@<TRIPOS>MOLECULE
*****
 31 34 0 0 0
SMALL
GASTEIGER

@<TRIPOS>ATOM
      1 C          63.7669   87.9314   13.0347 C.3     1  UNL1        0.0328
      2 C          62.7950   87.5541   11.9562 C.ar    1  UNL1        0.0002
      3 C          62.2999   86.1419   11.8534 C.ar    1  UNL1        0.0774
      4 N          61.3280   85.7645   10.7750 N.ar    1  UNL1       -0.2457
      5 C          60.8512   86.7994    9.7994 C.ar    1  UNL1        0.0814
      6 C          59.8793   86.4220    8.7210 C.ar    1  UNL1        0.0196
      7 C          59.4025   87.4568    7.7454 C.ar    1  UNL1        0.0082
      8 C          59.8976   88.8690    7.8482 C.ar    1  UNL1        0.0347
      9 BR         59.4208   89.9039    6.8726 Br      1  UNL1       -0.0490
     10 C          60.8695   89.2464    8.9266 C.ar    1  UNL1        0.0083
     11 C          61.3463   88.2116    9.9022 C.ar    1  UNL1        0.0223
     12 C          62.3182   88.5889   10.9807 C.ar    1  UNL1        0.0526
     13 C          62.7767   85.1070   12.8290 C.ar    1  UNL1        0.0173
     14 C          63.8729   84.1594   12.4413 C.ar    1  UNL1        0.0015
     15 C          64.3496   83.1246   13.4169 C.ar    1  UNL1        0.0000
     16 C          63.7302   83.0374   14.7803 C.ar    1  UNL1        0.0000
     17 C          62.6340   83.9850   15.1680 C.ar    1  UNL1        0.0000
     18 C          62.1573   85.0198   14.1924 C.ar    1  UNL1        0.0015
     19 C          62.8134   90.0011   11.0835 C.2     1  UNL1        0.2493
     20 O          61.8348   91.1340   11.1767 O.2     1  UNL1       -0.2698
     21 N          64.2872   90.2803   11.0931 N.am    1  UNL1       -0.2804
     22 H          64.9295   89.5367   11.0319 H       1  UNL1        0.1552
     23 C          64.7823   91.6925   11.1959 C.ar    1  UNL1        0.0505
     24 C          65.3569   92.1936   12.4877 C.ar    1  UNL1        0.0147
     25 C          65.8520   93.6058   12.5905 C.ar    1  UNL1        0.0024
     26 C          65.7725   94.5168   11.4016 C.ar    1  UNL1        0.0141
     27 C          65.1979   94.0158   10.1098 C.ar    1  UNL1        0.0024
     28 C          64.7028   92.6036   10.0069 C.ar    1  UNL1        0.0147
     29 C          66.2677   95.9290   11.5044 C.2     1  UNL1        0.0729
     30 O          66.9707   96.5639   10.3413 O.co2   1  UNL1       -0.5446
     31 O          66.0598   96.7064   12.7703 O.co2   1  UNL1       -0.5446
@<TRIPOS>UNITY_ATOM_ATTR
30 1
charge -1
@<TRIPOS>BOND
     1     1     2    1
     2     2     3   ar
     3     3    13    1
     4    13    14   ar
     5    14    15   ar
     6    15    16   ar
     7    16    17   ar
     8    17    18   ar
     9     3     4   ar
    10     4     5   ar
    11     5     6   ar
    12     6     7   ar
    13     7     8   ar
    14     8     9    1
    15     8    10   ar
    16    10    11   ar
    17    11    12   ar
    18    12    19    1
    19    19    20    2
    20    19    21   am
    21    21    23    1
    22    23    24   ar
    23    24    25   ar
    24    25    26   ar
    25    26    29    1
    26    29    30   ar
    27    29    31   ar
    28    26    27   ar
    29    27    28   ar
    30    12     2   ar
    31    28    23   ar
    32    18    13   ar
    33    11     5   ar
    34    21    22    1
@<TRIPOS>MOLECULE
*****
 31 34 0 0 0
SMALL
GASTEIGER

@<TRIPOS>ATOM
      1 C          45.3800   74.0085   15.0031 C.3     1  UNL1        0.0328
      2 C          45.0262   73.5342   16.3815 C.ar    1  UNL1        0.0002
      3 C          44.8992   72.0657   16.6598 C.ar    1  UNL1        0.0774
      4 N          44.5453   71.5914   18.0381 N.ar    1  UNL1       -0.2457
      5 C          44.3185   72.5856   19.1382 C.ar    1  UNL1        0.0814
      6 C          43.9647   72.1113   20.5166 C.ar    1  UNL1        0.0196
      7 C          43.7378   73.1054   21.6166 C.ar    1  UNL1        0.0082
      8 C          43.8648   74.5739   21.3383 C.ar    1  UNL1        0.0347
      9 BR         43.6379   75.5681   22.4384 Br      1  UNL1       -0.0490
     10 C          44.2186   75.0482   19.9600 C.ar    1  UNL1        0.0083
     11 C          44.4455   74.0540   18.8600 C.ar    1  UNL1        0.0223
     12 C          44.7993   74.5283   17.4816 C.ar    1  UNL1        0.0526
     13 C          45.1260   71.0715   15.5597 C.ar    1  UNL1        0.0173
     14 C          46.2774   70.1135   15.6402 C.ar    1  UNL1        0.0015
     15 C          46.5042   69.1194   14.5402 C.ar    1  UNL1        0.0000
     16 C          45.5797   69.0833   13.3595 C.ar    1  UNL1        0.0000
     17 C          44.4283   70.0413   13.2789 C.ar    1  UNL1        0.0000
     18 C          44.2015   71.0354   14.3790 C.ar    1  UNL1        0.0015
     19 C          44.9263   75.9968   17.2033 C.2     1  UNL1        0.2493
     20 O          46.2181   76.7048   17.4859 O.2     1  UNL1       -0.2698
     21 N          43.7614   76.7574   16.6424 N.am    1  UNL1       -0.2804
     22 H          42.9135   76.2927   16.4569 H       1  UNL1        0.1552
     23 C          43.8883   78.2258   16.3641 C.ar    1  UNL1        0.0505
     24 C          44.2440   79.1713   17.4729 C.ar    1  UNL1        0.0147
     25 C          44.3710   80.6398   17.1946 C.ar    1  UNL1        0.0024
     26 C          44.1423   81.1628   15.8075 C.ar    1  UNL1        0.0141
     27 C          43.7866   80.2173   14.6986 C.ar    1  UNL1        0.0024
     28 C          43.6596   78.7488   14.9769 C.ar    1  UNL1        0.0147
     29 C          44.2693   82.6313   15.5293 C.2     1  UNL1        0.0729
     30 O          43.8768   83.6300   16.5775 O.co2   1  UNL1       -0.5446
     31 O          44.7887   83.1011   14.2029 O.co2   1  UNL1       -0.5446
@<TRIPOS>UNITY_ATOM_ATTR
30 1
charge -1
@<TRIPOS>BOND
     1     1     2    1
     2     2     3   ar
     3     3    13    1
     4    13    14   ar
     5    14    15   ar
     6    15    16   ar
     7    16    17   ar
     8    17    18   ar
     9     3     4   ar
    10     4     5   ar
    11     5     6   ar
    12     6     7   ar
    13     7     8   ar
    14     8     9    1
    15     8    10   ar
    16    10    11   ar
    17    11    12   ar
    18    12    19    1
    19    19    20    2
    20    19    21   am
    21    21    23    1
    22    23    24   ar
    23    24    25   ar
    24    25    26   ar
    25    26    29    1
    26    29    30   ar
    27    29    31   ar
    28    26    27   ar
    29    27    28   ar
    30    12     2   ar
    31    28    23   ar
    32    18    13   ar
    33    11     5   ar
    34    21    22    1
@<TRIPOS>MOLECULE
*****
 31 34 0 0 0
SMALL
GASTEIGER

@<TRIPOS>ATOM
      1 C          59.4323   94.2871    0.1210 C.3     1  UNL1        0.0328
      2 C          60.2638   94.1864   -1.1235 C.ar    1  UNL1        0.0002
      3 C          61.6579   93.6375   -1.0516 C.ar    1  UNL1        0.0774
      4 N          62.4894   93.5369   -2.2959 N.ar    1  UNL1       -0.2457
      5 C          61.9268   93.9852   -3.6122 C.ar    1  UNL1        0.0814
      6 C          62.7583   93.8846   -4.8566 C.ar    1  UNL1        0.0196
      7 C          62.1957   94.3329   -6.1728 C.ar    1  UNL1        0.0082
      8 C          60.8016   94.8818   -6.2447 C.ar    1  UNL1        0.0347
      9 BR         60.2390   95.3301   -7.5610 Br      1  UNL1       -0.0490
     10 C          59.9701   94.9824   -5.0003 C.ar    1  UNL1        0.0083
     11 C          60.5327   94.5341   -3.6841 C.ar    1  UNL1        0.0223
     12 C          59.7012   94.6347   -2.4397 C.ar    1  UNL1        0.0526
     13 C          62.2205   93.1892    0.2647 C.ar    1  UNL1        0.0173
     14 C          61.6568   91.9789    0.9481 C.ar    1  UNL1        0.0015
     15 C          62.2194   91.5306    2.2644 C.ar    1  UNL1        0.0000
     16 C          63.3457   92.2927    2.8972 C.ar    1  UNL1        0.0000
     17 C          63.9095   93.5031    2.2137 C.ar    1  UNL1        0.0000
     18 C          63.3469   93.9513    0.8975 C.ar    1  UNL1        0.0015
     19 C          58.3071   95.1836   -2.5115 C.2     1  UNL1        0.2493
     20 O          58.0432   96.6118   -2.1367 O.2     1  UNL1       -0.2698
     21 N          57.1769   94.3043   -2.9582 N.am    1  UNL1       -0.2804
     22 H          57.3502   93.3669   -3.2042 H       1  UNL1        0.1552
     23 C          55.7828   94.8532   -3.0301 C.ar    1  UNL1        0.0505
     24 C          55.2446   95.3653   -4.3332 C.ar    1  UNL1        0.0147
     25 C          53.8505   95.9142   -4.4050 C.ar    1  UNL1        0.0024
     26 C          52.9946   95.9510   -3.1738 C.ar    1  UNL1        0.0141
     27 C          53.5328   95.4389   -1.8706 C.ar    1  UNL1        0.0024
     28 C          54.9269   94.8900   -1.7988 C.ar    1  UNL1        0.0147
     29 C          51.6005   96.5000   -3.2457 C.2     1  UNL1        0.0729
     30 O          50.8453   96.7965   -1.9840 O.co2   1  UNL1       -0.5446
     31 O          50.9616   96.7524   -4.5791 O.co2   1  UNL1       -0.5446
@<TRIPOS>UNITY_ATOM_ATTR
30 1
charge -1
@<TRIPOS>BOND
     1     1     2    1
     2     2     3   ar
     3     3    13    1
     4    13    14   ar
     5    14    15   ar
     6    15    16   ar
     7    16    17   ar
     8    17    18   ar
     9     3     4   ar
    10     4     5   ar
    11     5     6   ar
    12     6     7   ar
    13     7     8   ar
    14     8     9    1
    15     8    10   ar
    16    10    11   ar
    17    11    12   ar
    18    12    19    1
    19    19    20    2
    20    19    21   am
    21    21    23    1
    22    23    24   ar
    23    24    25   ar
    24    25    26   ar
    25    26    29    1
    26    29    30   ar
    27    29    31   ar
    28    26    27   ar
    29    27    28   ar
    30    12     2   ar
    31    28    23   ar
    32    18    13   ar
    33    11     5   ar
    34    21    22    1
@<TRIPOS>MOLECULE
*****
 31 34 0 0 0
SMALL
GASTEIGER

@<TRIPOS>ATOM
      1 C          58.6881   93.0235    0.1524 C.3     1  UNL1        0.0328
      2 C          59.9614   93.2570   -0.6056 C.ar    1  UNL1        0.0002
      3 C          61.2846   93.0174    0.0590 C.ar    1  UNL1        0.0774
      4 N          62.5577   93.2509   -0.6989 N.ar    1  UNL1       -0.2457
      5 C          62.5077   93.7240   -2.1215 C.ar    1  UNL1        0.0814
      6 C          63.7809   93.9575   -2.8794 C.ar    1  UNL1        0.0196
      7 C          63.7309   94.4306   -4.3019 C.ar    1  UNL1        0.0082
      8 C          62.4077   94.6702   -4.9665 C.ar    1  UNL1        0.0347
      9 BR         62.3577   95.1433   -6.3891 Br      1  UNL1       -0.0490
     10 C          61.1345   94.4367   -4.2086 C.ar    1  UNL1        0.0083
     11 C          61.1845   93.9636   -2.7861 C.ar    1  UNL1        0.0223
     12 C          59.9113   93.7301   -2.0281 C.ar    1  UNL1        0.0526
     13 C          61.3345   92.5443    1.4817 C.ar    1  UNL1        0.0173
     14 C          62.5260   91.7789    1.9761 C.ar    1  UNL1        0.0015
     15 C          62.5760   91.3059    3.3986 C.ar    1  UNL1        0.0000
     16 C          61.4344   91.5982    4.3267 C.ar    1  UNL1        0.0000
     17 C          60.2429   92.3635    3.8323 C.ar    1  UNL1        0.0000
     18 C          60.1930   92.8366    2.4098 C.ar    1  UNL1        0.0015
     19 C          58.5881   93.9697   -2.6927 C.2     1  UNL1        0.2493
     20 O          57.9860   92.9110   -3.5682 O.2     1  UNL1       -0.2698
     21 N          57.8671   95.2680   -2.4818 N.am    1  UNL1       -0.2804
     22 H          58.2623   95.9629   -1.9072 H       1  UNL1        0.1552
     23 C          56.5439   95.5076   -3.1465 C.ar    1  UNL1        0.0505
     24 C          55.3015   95.6430   -2.3170 C.ar    1  UNL1        0.0147
     25 C          53.9783   95.8826   -2.9816 C.ar    1  UNL1        0.0024
     26 C          53.8975   95.9868   -4.4757 C.ar    1  UNL1        0.0141
     27 C          55.1399   95.8514   -5.3054 C.ar    1  UNL1        0.0024
     28 C          56.4631   95.6118   -4.6407 C.ar    1  UNL1        0.0147
     29 C          52.5743   96.2264   -5.1404 C.2     1  UNL1        0.0729
     30 O          51.3012   96.0005   -4.3799 O.co2   1  UNL1       -0.5446
     31 O          52.5241   96.6918   -6.5654 O.co2   1  UNL1       -0.5446
@<TRIPOS>UNITY_ATOM_ATTR
30 1
charge -1
@<TRIPOS>BOND
     1     1     2    1
     2     2     3   ar
     3     3    13    1
     4    13    14   ar
     5    14    15   ar
     6    15    16   ar
     7    16    17   ar
     8    17    18   ar
     9     3     4   ar
    10     4     5   ar
    11     5     6   ar
    12     6     7   ar
    13     7     8   ar
    14     8     9    1
    15     8    10   ar
    16    10    11   ar
    17    11    12   ar
    18    12    19    1
    19    19    20    2
    20    19    21   am
    21    21    23    1
    22    23    24   ar
    23    24    25   ar
    24    25    26   ar
    25    26    29    1
    26    29    30   ar
    27    29    31   ar
    28    26    27   ar
    29    27    28   ar
    30    12     2   ar
    31    28    23   ar
    32    18    13   ar
    33    11     5   ar
    34    21    22    1
