@<TRIPOS>MOLECULE
*****
 31 34 0 0 0
SMALL
GASTEIGER

@<TRIPOS>ATOM
      1 C          64.3457   91.0386   13.1090 C.ar    1  UNL1        0.0648
      2 C          63.4480   90.4402   12.0668 C.ar    1  UNL1        0.0159
      3 C          63.1477   88.9707   12.0897 C.ar    1  UNL1        0.0028
      4 C          63.7452   88.0997   13.1547 C.ar    1  UNL1        0.0172
      5 C          64.6428   88.6980   14.1969 C.ar    1  UNL1        0.0028
      6 C          64.9431   90.1675   14.1740 C.ar    1  UNL1        0.0159
      7 C          63.4449   86.6301   13.1776 C.ar    1  UNL1        0.0771
      8 C          62.7986   85.9782   11.9914 C.ar    1  UNL1        0.1159
      9 N          62.4983   84.5088   12.0143 N.ar    1  UNL1       -0.2380
     10 C          62.8444   83.6913   13.2234 C.ar    1  UNL1        0.1321
     11 C          62.6698   82.2340   13.5333 C.ar    1  UNL1        0.1015
     12 C          62.0632   81.2059   12.6249 C.3     1  UNL1        0.0557
     13 N          63.2082   81.9854   14.9110 N.ar    1  UNL1       -0.1493
     14 N          63.7155   83.2890   15.4526 N.ar    1  UNL1       -0.1291
     15 C          63.4907   84.3433   14.4096 C.ar    1  UNL1        0.1810
     16 N          63.7909   85.8127   14.3867 N.ar    1  UNL1       -0.3347
     17 H          64.2151   86.2406   15.1653 H       1  UNL1        0.1675
     18 N          64.6460   92.5080   13.0861 N.pl3   1  UNL1       -0.2150
     19 H          64.3088   93.0906   13.8045 H       1  UNL1        0.1737
     20 S          65.4599   93.0898   11.9686 S.O2    1  UNL1        0.0745
     21 O          66.3054   93.8240   12.9666 O.2     1  UNL1       -0.1499
     22 O          64.6145   92.3557   10.9705 O.2     1  UNL1       -0.1499
     23 C          66.6764   95.5503    9.1022 C.ar    1  UNL1        0.1401
     24 C          67.9020   94.8351    8.6159 C.ar    1  UNL1        0.0378
     25 C          68.3135   93.5381    9.2471 C.ar    1  UNL1        0.0159
     26 C          67.4995   92.9564   10.3646 C.ar    1  UNL1        0.0767
     27 CL         67.9110   91.6594   10.9959 Cl      1  UNL1       -0.0808
     28 C          66.2740   93.6716   10.8510 C.ar    1  UNL1        0.1387
     29 C          65.8624   94.9686   10.2197 C.ar    1  UNL1        0.0579
     30 C          65.6441   96.8532    7.1054 C.3     1  UNL1        0.2525
     31 O          66.2649   96.8474    8.4709 O.3     1  UNL1       -0.4714
@<TRIPOS>BOND
     1    30    31    1
     2    31    23    1
     3    23    24   ar
     4    24    25   ar
     5    25    26   ar
     6    26    27    1
     7    26    28   ar
     8    28    20    1
     9    20    21    2
    10    20    22    2
    11    20    18    1
    12    18     1    1
    13     1     2   ar
    14     2     3   ar
    15     3     4   ar
    16     4     7    1
    17     7     8   ar
    18     8     9   ar
    19     9    10   ar
    20    10    11   ar
    21    11    12    1
    22    11    13   ar
    23    13    14   ar
    24    14    15   ar
    25    15    16   ar
    26     4     5   ar
    27     5     6   ar
    28    28    29   ar
    29    29    23   ar
    30     6     1   ar
    31    16     7   ar
    32    15    10    1
    33    18    19    1
    34    16    17    1
@<TRIPOS>MOLECULE
*****
 31 34 0 0 0
SMALL
GASTEIGER

@<TRIPOS>ATOM
      1 C          63.9110   88.2089   14.8673 C.ar    1  UNL1        0.0648
      2 C          63.5477   88.1403   13.4135 C.ar    1  UNL1        0.0159
      3 C          63.3850   86.8084   12.7431 C.ar    1  UNL1        0.0028
      4 C          63.5857   85.5450   13.5264 C.ar    1  UNL1        0.0172
      5 C          63.9491   85.6135   14.9801 C.ar    1  UNL1        0.0028
      6 C          64.1117   86.9455   15.6506 C.ar    1  UNL1        0.0159
      7 C          63.4230   84.2130   12.8560 C.ar    1  UNL1        0.0771
      8 C          63.6336   84.0875   11.3762 C.ar    1  UNL1        0.1159
      9 N          63.4709   82.7556   10.7058 N.ar    1  UNL1       -0.2380
     10 C          63.0977   81.5492   11.5152 C.ar    1  UNL1        0.1321
     11 C          62.8685   80.1165   11.1342 C.ar    1  UNL1        0.1015
     12 C          62.9731   79.5443    9.7516 C.3     1  UNL1        0.0557
     13 N          62.5163   79.3566   12.3786 N.ar    1  UNL1       -0.1493
     14 N          62.5279   80.3196   13.5286 N.ar    1  UNL1       -0.1291
     15 C          62.8872   81.6746   12.9950 C.ar    1  UNL1        0.1810
     16 N          63.0498   83.0066   13.6654 N.ar    1  UNL1       -0.3347
     17 H          62.9117   83.0889   14.6367 H       1  UNL1        0.1675
     18 N          64.0737   89.5408   15.5376 N.pl3   1  UNL1       -0.2150
     19 H          63.7725   89.6644   16.4668 H       1  UNL1        0.1737
     20 S          64.6953   90.6846   14.7924 S.O2    1  UNL1        0.0745
     21 O          65.9594   89.8932   14.6322 O.2     1  UNL1       -0.1499
     22 O          63.4312   91.4760   14.9527 O.2     1  UNL1       -0.1499
     23 C          65.7943   93.0632   11.8117 C.ar    1  UNL1        0.1401
     24 C          66.5601   94.1160   12.5568 C.ar    1  UNL1        0.0378
     25 C          66.7043   94.0250   14.0470 C.ar    1  UNL1        0.0159
     26 C          66.0827   92.8812   14.7922 C.ar    1  UNL1        0.0767
     27 CL         66.2269   92.7902   16.2825 Cl      1  UNL1       -0.0808
     28 C          65.3169   91.8284   14.0471 C.ar    1  UNL1        0.1387
     29 C          65.1727   91.9194   12.5569 C.ar    1  UNL1        0.0579
     30 C          66.6162   93.9785    9.5234 C.3     1  UNL1        0.2525
     31 O          65.6501   93.1542   10.3214 O.3     1  UNL1       -0.4714
@<TRIPOS>BOND
     1    30    31    1
     2    31    23    1
     3    23    24   ar
     4    24    25   ar
     5    25    26   ar
     6    26    27    1
     7    26    28   ar
     8    28    20    1
     9    20    21    2
    10    20    22    2
    11    20    18    1
    12    18     1    1
    13     1     2   ar
    14     2     3   ar
    15     3     4   ar
    16     4     7    1
    17     7     8   ar
    18     8     9   ar
    19     9    10   ar
    20    10    11   ar
    21    11    12    1
    22    11    13   ar
    23    13    14   ar
    24    14    15   ar
    25    15    16   ar
    26     4     5   ar
    27     5     6   ar
    28    28    29   ar
    29    29    23   ar
    30     6     1   ar
    31    16     7   ar
    32    15    10    1
    33    18    19    1
    34    16    17    1
@<TRIPOS>MOLECULE
*****
 31 34 0 0 0
SMALL
GASTEIGER

@<TRIPOS>ATOM
      1 C          64.4672   90.9249   13.4296 C.ar    1  UNL1        0.0648
      2 C          65.0421   90.0862   14.5325 C.ar    1  UNL1        0.0159
      3 C          64.7676   88.6122   14.5748 C.ar    1  UNL1        0.0028
      4 C          63.9182   87.9767   13.5143 C.ar    1  UNL1        0.0172
      5 C          63.3433   88.8153   12.4115 C.ar    1  UNL1        0.0028
      6 C          63.6178   90.2894   12.3691 C.ar    1  UNL1        0.0159
      7 C          63.6437   86.5026   13.5567 C.ar    1  UNL1        0.0771
      8 C          63.8330   85.7409   14.8350 C.ar    1  UNL1        0.1159
      9 N          63.5584   84.2669   14.8773 N.ar    1  UNL1       -0.2380
     10 C          63.0946   83.5546   13.6414 C.ar    1  UNL1        0.1321
     11 C          62.7477   82.1186   13.3811 C.ar    1  UNL1        0.1015
     12 C          62.7960   81.0041   14.3839 C.3     1  UNL1        0.0557
     13 N          62.3440   81.9928   11.9419 N.ar    1  UNL1       -0.1493
     14 N          62.4414   83.3511   11.3128 N.ar    1  UNL1       -0.1291
     15 C          62.9053   84.3162   12.3632 C.ar    1  UNL1        0.1810
     16 N          63.1798   85.7903   12.3208 N.ar    1  UNL1       -0.3347
     17 H          63.0556   86.2902   11.4819 H       1  UNL1        0.1675
     18 N          64.7417   92.3989   13.3872 N.pl3   1  UNL1       -0.2150
     19 H          64.4247   92.9798   14.1161 H       1  UNL1        0.1737
     20 S          65.4993   92.9878   12.2344 S.O2    1  UNL1        0.0745
     21 O          66.4526   93.6378   13.1929 O.2     1  UNL1       -0.1499
     22 O          64.5461   92.3379   11.2759 O.2     1  UNL1       -0.1499
     23 C          66.5650   95.4601    9.3185 C.ar    1  UNL1        0.1401
     24 C          67.7722   94.7545    8.7756 C.ar    1  UNL1        0.0378
     25 C          68.2218   93.4600    9.3856 C.ar    1  UNL1        0.0159
     26 C          67.4642   92.8711   10.5385 C.ar    1  UNL1        0.0767
     27 CL         67.9138   91.5766   11.1486 Cl      1  UNL1       -0.0808
     28 C          66.2570   93.5768   11.0814 C.ar    1  UNL1        0.1387
     29 C          65.8074   94.8712   10.4714 C.ar    1  UNL1        0.0579
     30 C          65.7667   96.8157    7.2509 C.3     1  UNL1        0.2525
     31 O          66.1154   96.7546    8.7085 O.3     1  UNL1       -0.4714
@<TRIPOS>BOND
     1    30    31    1
     2    31    23    1
     3    23    24   ar
     4    24    25   ar
     5    25    26   ar
     6    26    27    1
     7    26    28   ar
     8    28    20    1
     9    20    21    2
    10    20    22    2
    11    20    18    1
    12    18     1    1
    13     1     2   ar
    14     2     3   ar
    15     3     4   ar
    16     4     7    1
    17     7     8   ar
    18     8     9   ar
    19     9    10   ar
    20    10    11   ar
    21    11    12    1
    22    11    13   ar
    23    13    14   ar
    24    14    15   ar
    25    15    16   ar
    26     4     5   ar
    27     5     6   ar
    28    28    29   ar
    29    29    23   ar
    30     6     1   ar
    31    16     7   ar
    32    15    10    1
    33    18    19    1
    34    16    17    1
@<TRIPOS>MOLECULE
*****
 31 34 0 0 0
SMALL
GASTEIGER

@<TRIPOS>ATOM
      1 C          64.6844   91.3438   13.3874 C.ar    1  UNL1        0.0648
      2 C          63.8635   90.7831   12.2640 C.ar    1  UNL1        0.0159
      3 C          63.5039   89.3270   12.2520 C.ar    1  UNL1        0.0028
      4 C          63.9649   88.4314   13.3635 C.ar    1  UNL1        0.0172
      5 C          64.7857   88.9920   14.4869 C.ar    1  UNL1        0.0028
      6 C          65.1454   90.4482   14.4989 C.ar    1  UNL1        0.0159
      7 C          63.6052   86.9752   13.3515 C.ar    1  UNL1        0.0771
      8 C          62.8797   86.3915   12.1756 C.ar    1  UNL1        0.1159
      9 N          62.5200   84.9353   12.1637 N.ar    1  UNL1       -0.2380
     10 C          62.8858   84.0629   13.3277 C.ar    1  UNL1        0.1321
     11 C          62.6649   82.6038   13.5969 C.ar    1  UNL1        0.1015
     12 C          61.9760   81.6332   12.6840 C.3     1  UNL1        0.0557
     13 N          63.2540   82.2857   14.9392 N.ar    1  UNL1       -0.1493
     14 N          63.8389   83.5482   15.4996 N.ar    1  UNL1       -0.1291
     15 C          63.6113   84.6465   14.5036 C.ar    1  UNL1        0.1810
     16 N          63.9710   86.1027   14.5156 N.ar    1  UNL1       -0.3347
     17 H          64.4472   86.4858   15.2874 H       1  UNL1        0.1675
     18 N          65.0440   92.7999   13.3993 N.pl3   1  UNL1       -0.2150
     19 H          64.8215   93.3556   14.1810 H       1  UNL1        0.1737
     20 S          65.7428   93.4095   12.2203 S.O2    1  UNL1        0.0745
     21 O          64.5812   93.0456   11.3438 O.2     1  UNL1       -0.1499
     22 O          66.9043   93.7734   13.0968 O.2     1  UNL1       -0.1499
     23 C          67.8242   93.7487    8.8584 C.ar    1  UNL1        0.1401
     24 C          67.8391   95.2384    8.6833 C.ar    1  UNL1        0.0378
     25 C          67.1552   96.1184    9.6872 C.ar    1  UNL1        0.0159
     26 C          66.4565   95.5088   10.8661 C.ar    1  UNL1        0.0767
     27 CL         65.7725   96.3888   11.8701 Cl      1  UNL1       -0.0808
     28 C          66.4416   94.0191   11.0412 C.ar    1  UNL1        0.1387
     29 C          67.1254   93.1391   10.0374 C.ar    1  UNL1        0.0579
     30 C          69.2032   91.6178    8.3039 C.3     1  UNL1        0.2525
     31 O          68.5081   92.8687    7.8544 O.3     1  UNL1       -0.4714
@<TRIPOS>BOND
     1    30    31    1
     2    31    23    1
     3    23    24   ar
     4    24    25   ar
     5    25    26   ar
     6    26    27    1
     7    26    28   ar
     8    28    20    1
     9    20    21    2
    10    20    22    2
    11    20    18    1
    12    18     1    1
    13     1     2   ar
    14     2     3   ar
    15     3     4   ar
    16     4     7    1
    17     7     8   ar
    18     8     9   ar
    19     9    10   ar
    20    10    11   ar
    21    11    12    1
    22    11    13   ar
    23    13    14   ar
    24    14    15   ar
    25    15    16   ar
    26     4     5   ar
    27     5     6   ar
    28    28    29   ar
    29    29    23   ar
    30     6     1   ar
    31    16     7   ar
    32    15    10    1
    33    18    19    1
    34    16    17    1
@<TRIPOS>MOLECULE
*****
 31 34 0 0 0
SMALL
GASTEIGER

@<TRIPOS>ATOM
      1 C          63.7846   87.8765   14.8916 C.ar    1  UNL1        0.0648
      2 C          63.9202   86.6010   15.6694 C.ar    1  UNL1        0.0159
      3 C          63.7780   85.2797   14.9738 C.ar    1  UNL1        0.0028
      4 C          63.5002   85.2338   13.5005 C.ar    1  UNL1        0.0172
      5 C          63.3645   86.5092   12.7227 C.ar    1  UNL1        0.0028
      6 C          63.5067   87.8306   13.4183 C.ar    1  UNL1        0.0159
      7 C          63.3580   83.9124   12.8049 C.ar    1  UNL1        0.0771
      8 C          63.6105   83.8103   11.3299 C.ar    1  UNL1        0.1159
      9 N          63.4683   82.4889   10.6344 N.ar    1  UNL1       -0.2380
     10 C          63.0736   81.2697   11.4140 C.ar    1  UNL1        0.1321
     11 C          62.8568   79.8430   11.0042 C.ar    1  UNL1        0.1015
     12 C          63.0012   79.2927    9.6163 C.3     1  UNL1        0.0557
     13 N          62.4703   79.0635   12.2261 N.ar    1  UNL1       -0.1493
     14 N          62.4482   80.0083   13.3909 N.ar    1  UNL1       -0.1291
     15 C          62.8211   81.3718   12.8890 C.ar    1  UNL1        0.1810
     16 N          62.9633   82.6932   13.5845 N.ar    1  UNL1       -0.3347
     17 H          62.7975   82.7602   14.5526 H       1  UNL1        0.1675
     18 N          63.9268   89.1978   15.5872 N.pl3   1  UNL1       -0.2150
     19 H          63.5990   89.3066   16.5092 H       1  UNL1        0.1737
     20 S          64.5683   90.3534   14.8781 S.O2    1  UNL1        0.0745
     21 O          63.3690   91.2031   15.1776 O.2     1  UNL1       -0.1499
     22 O          65.7676   89.5038   14.5785 O.2     1  UNL1       -0.1499
     23 C          66.8860   93.4941   14.1609 C.ar    1  UNL1        0.1401
     24 C          66.4930   93.8203   12.7505 C.ar    1  UNL1        0.0378
     25 C          65.4585   92.9909   12.0493 C.ar    1  UNL1        0.0159
     26 C          64.8169   91.8353   12.7585 C.ar    1  UNL1        0.0767
     27 CL         63.7823   91.0058   12.0573 Cl      1  UNL1       -0.0808
     28 C          65.2099   91.5091   14.1689 C.ar    1  UNL1        0.1387
     29 C          66.2445   92.3385   14.8701 C.ar    1  UNL1        0.0579
     30 C          68.7894   93.7048   15.9168 C.3     1  UNL1        0.2525
     31 O          67.9207   94.3236   14.8621 O.3     1  UNL1       -0.4714
@<TRIPOS>BOND
     1    30    31    1
     2    31    23    1
     3    23    24   ar
     4    24    25   ar
     5    25    26   ar
     6    26    27    1
     7    26    28   ar
     8    28    20    1
     9    20    21    2
    10    20    22    2
    11    20    18    1
    12    18     1    1
    13     1     2   ar
    14     2     3   ar
    15     3     4   ar
    16     4     7    1
    17     7     8   ar
    18     8     9   ar
    19     9    10   ar
    20    10    11   ar
    21    11    12    1
    22    11    13   ar
    23    13    14   ar
    24    14    15   ar
    25    15    16   ar
    26     4     5   ar
    27     5     6   ar
    28    28    29   ar
    29    29    23   ar
    30     6     1   ar
    31    16     7   ar
    32    15    10    1
    33    18    19    1
    34    16    17    1
@<TRIPOS>MOLECULE
*****
 31 34 0 0 0
SMALL
GASTEIGER

@<TRIPOS>ATOM
      1 C          64.0407   89.4668   14.6916 C.ar    1  UNL1        0.0648
      2 C          65.3549   90.1154   15.0117 C.ar    1  UNL1        0.0159
      3 C          65.9324   91.1396   14.0802 C.ar    1  UNL1        0.0028
      4 C          65.1957   91.5151   12.8287 C.ar    1  UNL1        0.0172
      5 C          63.8817   90.8666   12.5086 C.ar    1  UNL1        0.0028
      6 C          63.3041   89.8424   13.4401 C.ar    1  UNL1        0.0159
      7 C          65.7733   92.5393   11.8972 C.ar    1  UNL1        0.0771
      8 C          65.5196   93.9982   12.1362 C.ar    1  UNL1        0.1159
      9 N          66.0971   95.0223   11.2047 N.ar    1  UNL1       -0.2380
     10 C          66.9283   94.5875   10.0343 C.ar    1  UNL1        0.1321
     11 C          67.6235   95.3620    8.9539 C.ar    1  UNL1        0.1015
     12 C          67.6335   96.8546    8.8063 C.3     1  UNL1        0.0557
     13 N          68.3068   94.3817    8.0473 N.ar    1  UNL1       -0.1493
     14 N          68.0339   93.0013    8.5672 N.ar    1  UNL1       -0.1291
     15 C          67.1820   93.1286    9.7952 C.ar    1  UNL1        0.1810
     16 N          66.6045   92.1045   10.7267 N.ar    1  UNL1       -0.3347
     17 H          66.7710   91.1469   10.5698 H       1  UNL1        0.1675
     18 N          63.4633   88.4427   15.6231 N.pl3   1  UNL1       -0.2150
     19 H          63.0105   88.7284   16.4492 H       1  UNL1        0.1737
     20 S          63.5758   86.9832   15.2958 S.O2    1  UNL1        0.0745
     21 O          63.8599   87.3263   13.8635 O.2     1  UNL1       -0.1499
     22 O          63.2916   86.6401   16.7281 O.2     1  UNL1       -0.1499
     23 C          62.5663   83.2155   14.5643 C.ar    1  UNL1        0.1401
     24 C          63.9133   82.6046   14.3141 C.ar    1  UNL1        0.0378
     25 C          65.1477   83.4532   14.3911 C.ar    1  UNL1        0.0159
     26 C          65.0352   84.9127   14.7183 C.ar    1  UNL1        0.0767
     27 CL         66.2696   85.7614   14.7954 Cl      1  UNL1       -0.0808
     28 C          63.6882   85.5236   14.9685 C.ar    1  UNL1        0.1387
     29 C          62.4538   84.6750   14.8915 C.ar    1  UNL1        0.0579
     30 C          61.4031   80.9915   13.8925 C.3     1  UNL1        0.2525
     31 O          61.3319   82.3667   14.4872 O.3     1  UNL1       -0.4714
@<TRIPOS>BOND
     1    30    31    1
     2    31    23    1
     3    23    24   ar
     4    24    25   ar
     5    25    26   ar
     6    26    27    1
     7    26    28   ar
     8    28    20    1
     9    20    21    2
    10    20    22    2
    11    20    18    1
    12    18     1    1
    13     1     2   ar
    14     2     3   ar
    15     3     4   ar
    16     4     7    1
    17     7     8   ar
    18     8     9   ar
    19     9    10   ar
    20    10    11   ar
    21    11    12    1
    22    11    13   ar
    23    13    14   ar
    24    14    15   ar
    25    15    16   ar
    26     4     5   ar
    27     5     6   ar
    28    28    29   ar
    29    29    23   ar
    30     6     1   ar
    31    16     7   ar
    32    15    10    1
    33    18    19    1
    34    16    17    1
@<TRIPOS>MOLECULE
*****
 31 34 0 0 0
SMALL
GASTEIGER

@<TRIPOS>ATOM
      1 C          58.9776   89.9739    6.0560 C.ar    1  UNL1        0.0648
      2 C          60.4239   89.9232    5.6613 C.ar    1  UNL1        0.0159
      3 C          60.9639   90.9044    4.6635 C.ar    1  UNL1        0.0028
      4 C          60.0576   91.9364    4.0604 C.ar    1  UNL1        0.0172
      5 C          58.6114   91.9872    4.4551 C.ar    1  UNL1        0.0028
      6 C          58.0714   91.0059    5.4529 C.ar    1  UNL1        0.0159
      7 C          60.5976   92.9177    3.0625 C.ar    1  UNL1        0.0771
      8 C          62.0022   92.7757    2.5557 C.ar    1  UNL1        0.1159
      9 N          62.5421   93.7569    1.5579 N.ar    1  UNL1       -0.2380
     10 C          61.6775   94.8801    1.0670 C.ar    1  UNL1        0.1321
     11 C          61.9333   95.9918    0.0928 C.ar    1  UNL1        0.1015
     12 C          63.2113   96.2322   -0.6548 C.3     1  UNL1        0.0557
     13 N          60.6868   96.8207   -0.0022 N.ar    1  UNL1       -0.1493
     14 N          59.6607   96.2214    0.9131 N.ar    1  UNL1       -0.1291
     15 C          60.2729   95.0220    1.5739 C.ar    1  UNL1        0.1810
     16 N          59.7330   94.0408    2.5717 N.ar    1  UNL1       -0.3347
     17 H          58.8111   94.1339    2.9044 H       1  UNL1        0.1675
     18 N          58.4377   88.9927    7.0538 N.pl3   1  UNL1       -0.2150
     19 H          57.4676   88.8362    7.1150 H       1  UNL1        0.1737
     20 S          59.3757   88.2500    7.9584 S.O2    1  UNL1        0.0745
     21 O          60.0861   89.5326    8.2749 O.2     1  UNL1       -0.1499
     22 O          58.6654   86.9674    7.6419 O.2     1  UNL1       -0.1499
     23 C          62.2015   85.7535    9.1964 C.ar    1  UNL1        0.1401
     24 C          62.1898   86.0215   10.6722 C.ar    1  UNL1        0.0378
     25 C          61.2401   87.0323   11.2434 C.ar    1  UNL1        0.0159
     26 C          60.3021   87.7751   10.3388 C.ar    1  UNL1        0.0767
     27 CL         59.3524   88.7860   10.9100 Cl      1  UNL1       -0.0808
     28 C          60.3138   87.5071    8.8630 C.ar    1  UNL1        0.1387
     29 C          61.2635   86.4963    8.2918 C.ar    1  UNL1        0.0579
     30 C          63.8510   83.7745    9.5324 C.3     1  UNL1        0.2525
     31 O          63.1513   84.7427    8.6252 O.3     1  UNL1       -0.4714
@<TRIPOS>BOND
     1    30    31    1
     2    31    23    1
     3    23    24   ar
     4    24    25   ar
     5    25    26   ar
     6    26    27    1
     7    26    28   ar
     8    28    20    1
     9    20    21    2
    10    20    22    2
    11    20    18    1
    12    18     1    1
    13     1     2   ar
    14     2     3   ar
    15     3     4   ar
    16     4     7    1
    17     7     8   ar
    18     8     9   ar
    19     9    10   ar
    20    10    11   ar
    21    11    12    1
    22    11    13   ar
    23    13    14   ar
    24    14    15   ar
    25    15    16   ar
    26     4     5   ar
    27     5     6   ar
    28    28    29   ar
    29    29    23   ar
    30     6     1   ar
    31    16     7   ar
    32    15    10    1
    33    18    19    1
    34    16    17    1
@<TRIPOS>MOLECULE
*****
 31 34 0 0 0
SMALL
GASTEIGER

@<TRIPOS>ATOM
      1 C          62.5444   88.9572   11.6646 C.ar    1  UNL1        0.0648
      2 C          63.3950   88.2936   12.7069 C.ar    1  UNL1        0.0159
      3 C          63.4199   86.7976   12.8135 C.ar    1  UNL1        0.0028
      4 C          62.5942   85.9652   11.8779 C.ar    1  UNL1        0.0172
      5 C          61.7437   86.6288   10.8357 C.ar    1  UNL1        0.0028
      6 C          61.7188   88.1248   10.7290 C.ar    1  UNL1        0.0159
      7 C          62.6191   84.4692   11.9845 C.ar    1  UNL1        0.0771
      8 C          62.8472   83.6337   10.7599 C.ar    1  UNL1        0.1159
      9 N          62.8721   82.1377   10.8665 N.ar    1  UNL1       -0.2380
     10 C          62.6689   81.4772   12.1979 C.ar    1  UNL1        0.1321
     11 C          62.6416   80.0349   12.6090 C.ar    1  UNL1        0.1015
     12 C          62.8266   78.8555   11.7008 C.3     1  UNL1        0.0557
     13 N          62.3966   79.9790   14.0878 N.ar    1  UNL1       -0.1493
     14 N          62.2726   81.3868   14.5906 N.ar    1  UNL1       -0.1291
     15 C          62.4409   82.3127   13.4226 C.ar    1  UNL1        0.1810
     16 N          62.4160   83.8087   13.3159 N.ar    1  UNL1       -0.3347
     17 H          62.2663   84.3571   14.1197 H       1  UNL1        0.1675
     18 N          62.5195   90.4532   11.5580 N.pl3   1  UNL1       -0.2150
     19 H          61.7338   90.9064   11.1754 H       1  UNL1        0.1737
     20 S          63.6918   91.2586   12.0345 S.O2    1  UNL1        0.0745
     21 O          63.0958   91.3125   13.4099 O.2     1  UNL1       -0.1499
     22 O          64.2878   91.2047   10.6590 O.2     1  UNL1       -0.1499
     23 C          66.4492   94.1052   12.2439 C.ar    1  UNL1        0.1401
     24 C          67.2088   93.6748   13.4636 C.ar    1  UNL1        0.0378
     25 C          66.7961   92.4390   14.2070 C.ar    1  UNL1        0.0159
     26 C          65.6238   91.6337   13.7306 C.ar    1  UNL1        0.0767
     27 CL         65.2111   90.3979   14.4739 Cl      1  UNL1       -0.0808
     28 C          64.8642   92.0641   12.5108 C.ar    1  UNL1        0.1387
     29 C          65.2769   93.2998   11.7675 C.ar    1  UNL1        0.0579
     30 C          66.0642   95.8070   10.3189 C.3     1  UNL1        0.2525
     31 O          66.8619   95.3410   11.5006 O.3     1  UNL1       -0.4714
@<TRIPOS>BOND
     1    30    31    1
     2    31    23    1
     3    23    24   ar
     4    24    25   ar
     5    25    26   ar
     6    26    27    1
     7    26    28   ar
     8    28    20    1
     9    20    21    2
    10    20    22    2
    11    20    18    1
    12    18     1    1
    13     1     2   ar
    14     2     3   ar
    15     3     4   ar
    16     4     7    1
    17     7     8   ar
    18     8     9   ar
    19     9    10   ar
    20    10    11   ar
    21    11    12    1
    22    11    13   ar
    23    13    14   ar
    24    14    15   ar
    25    15    16   ar
    26     4     5   ar
    27     5     6   ar
    28    28    29   ar
    29    29    23   ar
    30     6     1   ar
    31    16     7   ar
    32    15    10    1
    33    18    19    1
    34    16    17    1
@<TRIPOS>MOLECULE
*****
 31 34 0 0 0
SMALL
GASTEIGER

@<TRIPOS>ATOM
      1 C          62.9379   95.4997   -0.5298 C.ar    1  UNL1        0.0648
      2 C          61.5959   95.8490    0.0421 C.ar    1  UNL1        0.0159
      3 C          60.9867   94.9859    1.1069 C.ar    1  UNL1        0.0028
      4 C          61.7195   93.7735    1.5999 C.ar    1  UNL1        0.0172
      5 C          63.0615   93.4242    1.0282 C.ar    1  UNL1        0.0028
      6 C          63.6707   94.2873   -0.0367 C.ar    1  UNL1        0.0159
      7 C          61.1102   92.9104    2.6648 C.ar    1  UNL1        0.0771
      8 C          61.9679   91.9488    3.4327 C.ar    1  UNL1        0.1159
      9 N          61.3587   91.0858    4.4975 N.ar    1  UNL1       -0.2380
     10 C          59.8916   91.1843    4.7944 C.ar    1  UNL1        0.1321
     11 C          59.0166   90.4672    5.7795 C.ar    1  UNL1        0.1015
     12 C          59.4620   89.4163    6.7528 C.3     1  UNL1        0.0557
     13 N          57.6181   90.9857    5.6204 N.ar    1  UNL1       -0.1493
     14 N          57.6288   92.0230    4.5370 N.ar    1  UNL1       -0.1291
     15 C          59.0339   92.1458    4.0265 C.ar    1  UNL1        0.1810
     16 N          59.6432   93.0088    2.9617 N.ar    1  UNL1       -0.3347
     17 H          59.0802   93.6399    2.4577 H       1  UNL1        0.1675
     18 N          63.5471   96.3628   -1.5946 N.pl3   1  UNL1       -0.2150
     19 H          63.5805   97.3397   -1.4771 H       1  UNL1        0.1737
     20 S          64.1054   95.7375   -2.8385 S.O2    1  UNL1        0.0745
     21 O          62.7140   95.5320   -3.3597 O.2     1  UNL1       -0.1499
     22 O          65.4968   95.9430   -2.3172 O.2     1  UNL1       -0.1499
     23 C          65.8727   95.3453   -6.3701 C.ar    1  UNL1        0.1401
     24 C          65.7805   93.8615   -6.5700 C.ar    1  UNL1        0.0378
     25 C          65.1300   93.0031   -5.5261 C.ar    1  UNL1        0.0159
     26 C          64.5716   93.6284   -4.2822 C.ar    1  UNL1        0.0767
     27 CL         63.9211   92.7700   -3.2382 Cl      1  UNL1       -0.0808
     28 C          64.6638   95.1122   -4.0824 C.ar    1  UNL1        0.1387
     29 C          65.3144   95.9706   -5.1263 C.ar    1  UNL1        0.0579
     30 C          68.0077   96.4181   -7.3905 C.3     1  UNL1        0.2525
     31 O          66.5233   96.2037   -7.4142 O.3     1  UNL1       -0.4714
@<TRIPOS>BOND
     1    30    31    1
     2    31    23    1
     3    23    24   ar
     4    24    25   ar
     5    25    26   ar
     6    26    27    1
     7    26    28   ar
     8    28    20    1
     9    20    21    2
    10    20    22    2
    11    20    18    1
    12    18     1    1
    13     1     2   ar
    14     2     3   ar
    15     3     4   ar
    16     4     7    1
    17     7     8   ar
    18     8     9   ar
    19     9    10   ar
    20    10    11   ar
    21    11    12    1
    22    11    13   ar
    23    13    14   ar
    24    14    15   ar
    25    15    16   ar
    26     4     5   ar
    27     5     6   ar
    28    28    29   ar
    29    29    23   ar
    30     6     1   ar
    31    16     7   ar
    32    15    10    1
    33    18    19    1
    34    16    17    1
