@<TRIPOS>MOLECULE
*****
 37 40 0 0 0
SMALL
GASTEIGER

@<TRIPOS>ATOM
      1 C          62.7822   88.6319   12.1288 C.ar    1  UNL1        0.2144
      2 C          62.5229   89.1078   10.7301 C.ar    1  UNL1        0.1822
      3 O          63.1514   90.3792   10.2419 O.2     1  UNL1       -0.4500
      4 C          64.0392   91.1748   11.1523 C.ar    1  UNL1        0.1545
      5 C          64.6677   92.4462   10.6640 C.ar    1  UNL1        0.0744
      6 C          65.5555   93.2418   11.5745 C.ar    1  UNL1        0.1397
      7 O          66.1841   94.5133   11.0862 O.3     1  UNL1       -0.5053
      8 C          65.8148   92.7659   12.9732 C.ar    1  UNL1        0.0735
      9 C          65.1863   91.4945   13.4614 C.ar    1  UNL1        0.1428
     10 O          65.4455   91.0187   14.8601 O.3     1  UNL1       -0.5052
     11 C          64.2985   90.6990   12.5510 C.ar    1  UNL1        0.1104
     12 C          63.6699   89.4275   13.0392 C.ar    1  UNL1        0.2382
     13 O          63.9292   88.9516   14.4379 O.2     1  UNL1       -0.2830
     14 H          66.0221   94.8106   10.2125 H       1  UNL1        0.2922
     15 H          66.0001   91.5156   15.4288 H       1  UNL1        0.2922
     16 C          61.6351   88.3122    9.8197 C.ar    1  UNL1        0.0379
     17 C          62.1373   87.0382    9.2076 C.ar    1  UNL1        0.0062
     18 C          61.2495   86.2427    8.2972 C.ar    1  UNL1        0.0367
     19 C          59.8595   86.7211    7.9989 C.ar    1  UNL1        0.1337
     20 O          58.9716   85.9254    7.0885 O.3     1  UNL1       -0.5055
     21 C          59.3573   87.9950    8.6110 C.ar    1  UNL1        0.0367
     22 C          60.2451   88.7906    9.5214 C.ar    1  UNL1        0.0062
     23 H          59.2854   85.1296    6.7061 H       1  UNL1        0.2922
     24 O          62.1536   87.3605   12.6171 O.3     1  UNL1       -0.4441
     25 C          63.7658   83.2276    9.9114 C.3     1  UNL1        0.0349
     26 C          63.7231   84.0048   11.1936 C.3     1  UNL1        0.1482
     27 O          62.9597   85.2940   11.2642 O.3     1  UNL1       -0.3186
     28 C          62.9170   86.0712   12.5465 C.3     1  UNL1        0.3181
     29 C          63.6377   85.5590   13.7582 C.3     1  UNL1        0.2105
     30 O          63.5950   86.3362   15.0405 O.3     1  UNL1       -0.3766
     31 C          64.4011   84.2698   13.6877 C.3     1  UNL1        0.1727
     32 O          65.1218   83.7576   14.8994 O.3     1  UNL1       -0.3793
     33 C          64.4438   83.4926   12.4054 C.3     1  UNL1        0.1669
     34 O          65.2072   82.2034   12.3349 O.3     1  UNL1       -0.3795
     35 H          63.0634   87.1378   14.9152 H       1  UNL1        0.2107
     36 H          65.5609   82.9198   14.6843 H       1  UNL1        0.2105
     37 H          65.1331   81.8322   11.4418 H       1  UNL1        0.2105
@<TRIPOS>BOND
     1    26    25    1
     2    26    27    1
     3    27    28    1
     4    28    24    1
     5    24     1    1
     6     1     2   ar
     7     2    16    1
     8    16    17   ar
     9    17    18   ar
    10    18    19   ar
    11    19    20    1
    12    19    21   ar
    13    21    22   ar
    14     2     3   ar
    15     3     4   ar
    16     4     5   ar
    17     5     6   ar
    18     6     7    1
    19     6     8   ar
    20     8     9   ar
    21     9    10    1
    22     9    11   ar
    23    11    12   ar
    24    12    13    2
    25    28    29    1
    26    29    30    1
    27    29    31    1
    28    31    32    1
    29    31    33    1
    30    33    34    1
    31    33    26    1
    32    12     1   ar
    33    22    16   ar
    34    11     4   ar
    35    20    23    1
    36     7    14    1
    37    10    15    1
    38    30    35    1
    39    32    36    1
    40    34    37    1
@<TRIPOS>MOLECULE
*****
 37 40 0 0 0
SMALL
GASTEIGER

@<TRIPOS>ATOM
      1 C          62.4125   87.7948   11.8839 C.ar    1  UNL1        0.2144
      2 C          61.8527   86.8966   10.8210 C.ar    1  UNL1        0.1822
      3 O          62.1115   85.4200   10.8740 O.2     1  UNL1       -0.4500
      4 C          62.9302   84.8417   11.9900 C.ar    1  UNL1        0.1545
      5 C          63.1891   83.3652   12.0431 C.ar    1  UNL1        0.0744
      6 C          64.0077   82.7870   13.1591 C.ar    1  UNL1        0.1397
      7 O          64.2666   81.3104   13.2122 O.3     1  UNL1       -0.5053
      8 C          64.5675   83.6853   14.2220 C.ar    1  UNL1        0.0735
      9 C          64.3087   85.1618   14.1689 C.ar    1  UNL1        0.1428
     10 O          64.8684   86.0600   15.2318 O.3     1  UNL1       -0.5052
     11 C          63.4900   85.7400   13.0529 C.ar    1  UNL1        0.1104
     12 C          63.2311   87.2166   12.9998 C.ar    1  UNL1        0.2382
     13 O          63.7909   88.1149   14.0627 O.2     1  UNL1       -0.2830
     14 H          63.9170   80.7493   12.5482 H       1  UNL1        0.2922
     15 H          65.3798   85.6988   15.9289 H       1  UNL1        0.2922
     16 C          61.0340   87.4749    9.7050 C.ar    1  UNL1        0.0379
     17 C          60.7975   88.9545    9.6371 C.ar    1  UNL1        0.0062
     18 C          59.9789   89.5328    8.5211 C.ar    1  UNL1        0.0367
     19 C          59.3967   88.6314    7.4730 C.ar    1  UNL1        0.1337
     20 O          58.5780   89.2097    6.3570 O.3     1  UNL1       -0.5055
     21 C          59.6332   87.1517    7.5409 C.ar    1  UNL1        0.0367
     22 C          60.4518   86.5735    8.6569 C.ar    1  UNL1        0.0062
     23 H          58.4303   90.1340    6.3147 H       1  UNL1        0.2922
     24 O          62.1536   89.2714   11.8308 O.3     1  UNL1       -0.4441
     25 C          65.9966   91.1883   14.7559 C.3     1  UNL1        0.0349
     26 C          65.2064   91.1968   13.4811 C.3     1  UNL1        0.1482
     27 O          64.0751   90.2298   13.2934 O.3     1  UNL1       -0.3186
     28 C          63.2848   90.2384   12.0184 C.3     1  UNL1        0.3181
     29 C          63.6258   91.2139   10.9312 C.3     1  UNL1        0.2105
     30 O          62.8355   91.2225    9.6564 O.3     1  UNL1       -0.3766
     31 C          64.7570   92.1809   11.1189 C.3     1  UNL1        0.1727
     32 O          65.0980   93.1565   10.0317 O.3     1  UNL1       -0.3793
     33 C          65.5473   92.1724   12.3938 C.3     1  UNL1        0.1669
     34 O          66.6785   93.1394   12.5815 O.3     1  UNL1       -0.3795
     35 H          62.1469   90.5406    9.6982 H       1  UNL1        0.2107
     36 H          65.8479   93.7041   10.3122 H       1  UNL1        0.2105
     37 H          67.0806   93.0014   13.4534 H       1  UNL1        0.2105
@<TRIPOS>BOND
     1    26    25    1
     2    26    27    1
     3    27    28    1
     4    28    24    1
     5    24     1    1
     6     1     2   ar
     7     2    16    1
     8    16    17   ar
     9    17    18   ar
    10    18    19   ar
    11    19    20    1
    12    19    21   ar
    13    21    22   ar
    14     2     3   ar
    15     3     4   ar
    16     4     5   ar
    17     5     6   ar
    18     6     7    1
    19     6     8   ar
    20     8     9   ar
    21     9    10    1
    22     9    11   ar
    23    11    12   ar
    24    12    13    2
    25    28    29    1
    26    29    30    1
    27    29    31    1
    28    31    32    1
    29    31    33    1
    30    33    34    1
    31    33    26    1
    32    12     1   ar
    33    22    16   ar
    34    11     4   ar
    35    20    23    1
    36     7    14    1
    37    10    15    1
    38    30    35    1
    39    32    36    1
    40    34    37    1
@<TRIPOS>MOLECULE
*****
 37 40 0 0 0
SMALL
GASTEIGER

@<TRIPOS>ATOM
      1 C          62.8433   87.5842   12.3050 C.ar    1  UNL1        0.2144
      2 C          62.0888   86.7126   11.3453 C.ar    1  UNL1        0.1822
      3 O          62.1170   85.2214   11.5052 O.2     1  UNL1       -0.4500
      4 C          62.8998   84.6018   12.6247 C.ar    1  UNL1        0.1545
      5 C          62.9281   83.1106   12.7846 C.ar    1  UNL1        0.0744
      6 C          63.7109   82.4910   13.9040 C.ar    1  UNL1        0.1397
      7 O          63.7391   80.9998   14.0639 O.3     1  UNL1       -0.5053
      8 C          64.4655   83.3626   14.8637 C.ar    1  UNL1        0.0735
      9 C          64.4372   84.8538   14.7038 C.ar    1  UNL1        0.1428
     10 O          65.1918   85.7254   15.6635 O.3     1  UNL1       -0.5052
     11 C          63.6544   85.4734   13.5844 C.ar    1  UNL1        0.1104
     12 C          63.6262   86.9646   13.4245 C.ar    1  UNL1        0.2382
     13 O          64.3807   87.8362   14.3841 O.2     1  UNL1       -0.2830
     14 H          63.2678   80.4553   13.4645 H       1  UNL1        0.2922
     15 H          65.6808   85.3384   16.3628 H       1  UNL1        0.2922
     16 C          61.3059   87.3322   10.2258 C.ar    1  UNL1        0.0379
     17 C          61.0181   88.8043   10.2369 C.ar    1  UNL1        0.0062
     18 C          60.2353   89.4238    9.1175 C.ar    1  UNL1        0.0367
     19 C          59.7403   88.5713    7.9868 C.ar    1  UNL1        0.1337
     20 O          58.9574   89.1910    6.8673 O.3     1  UNL1       -0.5055
     21 C          60.0281   87.0993    7.9757 C.ar    1  UNL1        0.0367
     22 C          60.8110   86.4797    9.0952 C.ar    1  UNL1        0.0062
     23 H          58.7776   90.1106    6.8743 H       1  UNL1        0.2922
     24 O          62.8151   89.0754   12.1451 O.3     1  UNL1       -0.4441
     25 C          66.9101   92.1237   13.1141 C.3     1  UNL1        0.0349
     26 C          65.6402   91.4698   13.5720 C.3     1  UNL1        0.1482
     27 O          64.8626   90.5996   12.6296 O.3     1  UNL1       -0.3186
     28 C          63.5927   89.9456   13.0875 C.3     1  UNL1        0.3181
     29 C          63.1004   90.1618   14.4878 C.3     1  UNL1        0.2105
     30 O          61.8305   89.5079   14.9457 O.3     1  UNL1       -0.3766
     31 C          63.8780   91.0320   15.4302 C.3     1  UNL1        0.1727
     32 O          63.3857   91.2482   16.8305 O.3     1  UNL1       -0.3793
     33 C          65.1478   91.6860   14.9723 C.3     1  UNL1        0.1669
     34 O          65.9254   92.5561   15.9148 O.3     1  UNL1       -0.3795
     35 H          61.4564   88.9845   14.2197 H       1  UNL1        0.2107
     36 H          64.0003   91.8313   17.3029 H       1  UNL1        0.2105
     37 H          66.7133   92.8978   15.4638 H       1  UNL1        0.2105
@<TRIPOS>BOND
     1    26    25    1
     2    26    27    1
     3    27    28    1
     4    28    24    1
     5    24     1    1
     6     1     2   ar
     7     2    16    1
     8    16    17   ar
     9    17    18   ar
    10    18    19   ar
    11    19    20    1
    12    19    21   ar
    13    21    22   ar
    14     2     3   ar
    15     3     4   ar
    16     4     5   ar
    17     5     6   ar
    18     6     7    1
    19     6     8   ar
    20     8     9   ar
    21     9    10    1
    22     9    11   ar
    23    11    12   ar
    24    12    13    2
    25    28    29    1
    26    29    30    1
    27    29    31    1
    28    31    32    1
    29    31    33    1
    30    33    34    1
    31    33    26    1
    32    12     1   ar
    33    22    16   ar
    34    11     4   ar
    35    20    23    1
    36     7    14    1
    37    10    15    1
    38    30    35    1
    39    32    36    1
    40    34    37    1
@<TRIPOS>MOLECULE
*****
 37 40 0 0 0
SMALL
GASTEIGER

@<TRIPOS>ATOM
      1 C          62.8707   87.1890   12.2016 C.ar    1  UNL1        0.2144
      2 C          62.3852   85.8451   11.7453 C.ar    1  UNL1        0.1822
      3 O          61.4214   85.7450   10.6003 O.2     1  UNL1       -0.4500
      4 C          60.9431   86.9888    9.9115 C.ar    1  UNL1        0.1545
      5 C          59.9793   86.8886    8.7666 C.ar    1  UNL1        0.0744
      6 C          59.5011   88.1324    8.0778 C.ar    1  UNL1        0.1397
      7 O          58.5373   88.0322    6.9328 O.3     1  UNL1       -0.5053
      8 C          59.9867   89.4762    8.5341 C.ar    1  UNL1        0.0735
      9 C          60.9504   89.5764    9.6791 C.ar    1  UNL1        0.1428
     10 O          61.4360   90.9203   10.1354 O.3     1  UNL1       -0.5052
     11 C          61.4287   88.3327   10.3678 C.ar    1  UNL1        0.1104
     12 C          62.3925   88.4328   11.5129 C.ar    1  UNL1        0.2382
     13 O          62.8780   89.7767   11.9692 O.2     1  UNL1       -0.2830
     14 H          58.2339   87.1928    6.6478 H       1  UNL1        0.2922
     15 H          61.1372   91.6972    9.7052 H       1  UNL1        0.2922
     16 C          62.8634   84.6014   12.4341 C.ar    1  UNL1        0.0379
     17 C          63.7675   83.6455   11.7137 C.ar    1  UNL1        0.0062
     18 C          64.2457   82.4018   12.4025 C.ar    1  UNL1        0.0367
     19 C          63.8199   82.1140   13.8117 C.ar    1  UNL1        0.1337
     20 O          64.2982   80.8702   14.5004 O.3     1  UNL1       -0.5055
     21 C          62.9159   83.0698   14.5321 C.ar    1  UNL1        0.0367
     22 C          62.4377   84.3135   13.8433 C.ar    1  UNL1        0.0062
     23 H          64.8629   80.2731   14.0504 H       1  UNL1        0.2922
     24 O          63.8346   87.2892   13.3467 O.3     1  UNL1       -0.4441
     25 C          65.8761   92.0669   13.2705 C.3     1  UNL1        0.0349
     26 C          65.0922   91.0003   13.9760 C.3     1  UNL1        0.1482
     27 O          64.8553   89.6780   13.3085 O.3     1  UNL1       -0.3186
     28 C          64.0714   88.6114   14.0142 C.3     1  UNL1        0.3181
     29 C          63.5244   88.8670   15.3872 C.3     1  UNL1        0.2105
     30 O          62.7405   87.8004   16.0928 O.3     1  UNL1       -0.3766
     31 C          63.7612   90.1893   16.0547 C.3     1  UNL1        0.1727
     32 O          63.2142   90.4449   17.4278 O.3     1  UNL1       -0.3793
     33 C          64.5451   91.2559   15.3492 C.3     1  UNL1        0.1669
     34 O          64.7820   92.5781   16.0167 O.3     1  UNL1       -0.3795
     35 H          62.6807   87.0151   15.5266 H       1  UNL1        0.2107
     36 H          63.4556   91.3409   17.7104 H       1  UNL1        0.2105
     37 H          65.3015   93.1486   15.4289 H       1  UNL1        0.2105
@<TRIPOS>BOND
     1    26    25    1
     2    26    27    1
     3    27    28    1
     4    28    24    1
     5    24     1    1
     6     1     2   ar
     7     2    16    1
     8    16    17   ar
     9    17    18   ar
    10    18    19   ar
    11    19    20    1
    12    19    21   ar
    13    21    22   ar
    14     2     3   ar
    15     3     4   ar
    16     4     5   ar
    17     5     6   ar
    18     6     7    1
    19     6     8   ar
    20     8     9   ar
    21     9    10    1
    22     9    11   ar
    23    11    12   ar
    24    12    13    2
    25    28    29    1
    26    29    30    1
    27    29    31    1
    28    31    32    1
    29    31    33    1
    30    33    34    1
    31    33    26    1
    32    12     1   ar
    33    22    16   ar
    34    11     4   ar
    35    20    23    1
    36     7    14    1
    37    10    15    1
    38    30    35    1
    39    32    36    1
    40    34    37    1
@<TRIPOS>MOLECULE
*****
 37 40 0 0 0
SMALL
GASTEIGER

@<TRIPOS>ATOM
      1 C          62.8647   89.2483   12.1492 C.ar    1  UNL1        0.2144
      2 C          62.7060   89.6957   10.7263 C.ar    1  UNL1        0.1822
      3 O          63.4630   90.8904   10.2269 O.2     1  UNL1       -0.4500
      4 C          64.3789   91.6378   11.1504 C.ar    1  UNL1        0.1545
      5 C          65.1360   92.8325   10.6510 C.ar    1  UNL1        0.0744
      6 C          66.0518   93.5797   11.5745 C.ar    1  UNL1        0.1397
      7 O          66.8089   94.7745   11.0751 O.3     1  UNL1       -0.5053
      8 C          66.2105   93.1323   12.9974 C.ar    1  UNL1        0.0735
      9 C          65.4535   91.9375   13.4968 C.ar    1  UNL1        0.1428
     10 O          65.6122   91.4901   14.9197 O.3     1  UNL1       -0.5052
     11 C          64.5376   91.1903   12.5733 C.ar    1  UNL1        0.1104
     12 C          63.7805   89.9955   13.0727 C.ar    1  UNL1        0.2382
     13 O          63.9393   89.5480   14.4956 O.2     1  UNL1       -0.2830
     14 H          66.7098   95.0540   10.1863 H       1  UNL1        0.2922
     15 H          66.1843   91.9569   15.4965 H       1  UNL1        0.2922
     16 C          61.7901   88.9484    9.8029 C.ar    1  UNL1        0.0379
     17 C          62.2040   87.6159    9.2524 C.ar    1  UNL1        0.0062
     18 C          61.2882   86.8686    8.3290 C.ar    1  UNL1        0.0367
     19 C          59.9584   87.4539    7.9560 C.ar    1  UNL1        0.1337
     20 O          59.0425   86.7066    7.0325 O.3     1  UNL1       -0.5055
     21 C          59.5444   88.7864    8.5065 C.ar    1  UNL1        0.0367
     22 C          60.4603   89.5336    9.4299 C.ar    1  UNL1        0.0062
     23 H          59.3011   85.8742    6.6887 H       1  UNL1        0.2922
     24 O          62.1076   88.0535   12.6486 O.3     1  UNL1       -0.4441
     25 C          65.8242   85.2160   14.9148 C.3     1  UNL1        0.0349
     26 C          64.6700   85.3227   13.9628 C.3     1  UNL1        0.1482
     27 O          63.9659   86.6348   13.7817 O.3     1  UNL1       -0.3186
     28 C          62.8116   86.7414   12.8297 C.3     1  UNL1        0.3181
     29 C          62.3615   85.5360   12.0588 C.3     1  UNL1        0.2105
     30 O          61.2072   85.6427   11.1068 O.3     1  UNL1       -0.3766
     31 C          63.0655   84.2240   12.2399 C.3     1  UNL1        0.1727
     32 O          62.6153   83.0186   11.4690 O.3     1  UNL1       -0.3793
     33 C          64.2198   84.1173   13.1919 C.3     1  UNL1        0.1669
     34 O          64.9238   82.8052   13.3730 O.3     1  UNL1       -0.3795
     35 H          60.8691   86.5518   11.1093 H       1  UNL1        0.2107
     36 H          63.1724   82.2593   11.7017 H       1  UNL1        0.2105
     37 H          65.6403   82.9092   14.0185 H       1  UNL1        0.2105
@<TRIPOS>BOND
     1    26    25    1
     2    26    27    1
     3    27    28    1
     4    28    24    1
     5    24     1    1
     6     1     2   ar
     7     2    16    1
     8    16    17   ar
     9    17    18   ar
    10    18    19   ar
    11    19    20    1
    12    19    21   ar
    13    21    22   ar
    14     2     3   ar
    15     3     4   ar
    16     4     5   ar
    17     5     6   ar
    18     6     7    1
    19     6     8   ar
    20     8     9   ar
    21     9    10    1
    22     9    11   ar
    23    11    12   ar
    24    12    13    2
    25    28    29    1
    26    29    30    1
    27    29    31    1
    28    31    32    1
    29    31    33    1
    30    33    34    1
    31    33    26    1
    32    12     1   ar
    33    22    16   ar
    34    11     4   ar
    35    20    23    1
    36     7    14    1
    37    10    15    1
    38    30    35    1
    39    32    36    1
    40    34    37    1
@<TRIPOS>MOLECULE
*****
 37 40 0 0 0
SMALL
GASTEIGER

@<TRIPOS>ATOM
      1 C          62.4728   87.5173   11.5626 C.ar    1  UNL1        0.2144
      2 C          62.6003   89.0102   11.4937 C.ar    1  UNL1        0.1822
      3 O          61.8813   89.7758   10.4227 O.2     1  UNL1       -0.4500
      4 C          61.0349   89.0483    9.4205 C.ar    1  UNL1        0.1545
      5 C          60.3159   89.8138    8.3495 C.ar    1  UNL1        0.0744
      6 C          59.4695   89.0863    7.3474 C.ar    1  UNL1        0.1397
      7 O          58.7505   89.8518    6.2763 O.3     1  UNL1       -0.5053
      8 C          59.3421   87.5933    7.4162 C.ar    1  UNL1        0.0735
      9 C          60.0610   86.8278    8.4872 C.ar    1  UNL1        0.1428
     10 O          59.9336   85.3348    8.5561 O.3     1  UNL1       -0.5052
     11 C          60.9074   87.5553    9.4894 C.ar    1  UNL1        0.1104
     12 C          61.6264   86.7898   10.5604 C.ar    1  UNL1        0.2382
     13 O          61.4990   85.2968   10.6293 O.2     1  UNL1       -0.2830
     14 H          58.8301   90.7844    6.2333 H       1  UNL1        0.2922
     15 H          59.4048   84.8804    7.9301 H       1  UNL1        0.2922
     16 C          63.4467   89.7377   12.4959 C.ar    1  UNL1        0.0379
     17 C          63.7277   89.1166   13.8320 C.ar    1  UNL1        0.0062
     18 C          64.5742   89.8441   14.8342 C.ar    1  UNL1        0.0367
     19 C          65.1396   91.1927   14.5002 C.ar    1  UNL1        0.1337
     20 O          65.9860   91.9202   15.5024 O.3     1  UNL1       -0.5055
     21 C          64.8586   91.8138   13.1641 C.ar    1  UNL1        0.0367
     22 C          64.0121   91.0864   12.1620 C.ar    1  UNL1        0.0062
     23 H          66.1616   91.5321   16.3370 H       1  UNL1        0.2922
     24 O          63.1918   86.7518   12.6336 O.3     1  UNL1       -0.4441
     25 C          64.1579   82.3009   10.1322 C.3     1  UNL1        0.0349
     26 C          63.6828   83.0266   11.3560 C.3     1  UNL1        0.1482
     27 O          63.6749   84.5263   11.3829 O.3     1  UNL1       -0.3186
     28 C          63.1998   85.2520   12.6068 C.3     1  UNL1        0.3181
     29 C          62.7328   84.4779   13.8037 C.3     1  UNL1        0.2105
     30 O          62.2577   85.2036   15.0275 O.3     1  UNL1       -0.3766
     31 C          62.7407   82.9782   13.7768 C.3     1  UNL1        0.1727
     32 O          62.2737   82.2041   14.9737 O.3     1  UNL1       -0.3793
     33 C          63.2158   82.2525   12.5530 C.3     1  UNL1        0.1669
     34 O          63.2237   80.7528   12.5261 O.3     1  UNL1       -0.3795
     35 H          62.3169   86.1604   14.8794 H       1  UNL1        0.2107
     36 H          62.3430   81.2539   14.7914 H       1  UNL1        0.2105
     37 H          63.5571   80.4466   11.6682 H       1  UNL1        0.2105
@<TRIPOS>BOND
     1    26    25    1
     2    26    27    1
     3    27    28    1
     4    28    24    1
     5    24     1    1
     6     1     2   ar
     7     2    16    1
     8    16    17   ar
     9    17    18   ar
    10    18    19   ar
    11    19    20    1
    12    19    21   ar
    13    21    22   ar
    14     2     3   ar
    15     3     4   ar
    16     4     5   ar
    17     5     6   ar
    18     6     7    1
    19     6     8   ar
    20     8     9   ar
    21     9    10    1
    22     9    11   ar
    23    11    12   ar
    24    12    13    2
    25    28    29    1
    26    29    30    1
    27    29    31    1
    28    31    32    1
    29    31    33    1
    30    33    34    1
    31    33    26    1
    32    12     1   ar
    33    22    16   ar
    34    11     4   ar
    35    20    23    1
    36     7    14    1
    37    10    15    1
    38    30    35    1
    39    32    36    1
    40    34    37    1
@<TRIPOS>MOLECULE
*****
 37 40 0 0 0
SMALL
GASTEIGER

@<TRIPOS>ATOM
      1 C          63.0306   87.0361   11.9258 C.ar    1  UNL1        0.2144
      2 C          62.3854   85.7239   11.5913 C.ar    1  UNL1        0.1822
      3 O          61.3023   85.6632   10.5554 O.2     1  UNL1       -0.4500
      4 C          60.8643   86.9147    9.8539 C.ar    1  UNL1        0.1545
      5 C          59.7811   86.8540    8.8181 C.ar    1  UNL1        0.0744
      6 C          59.3432   88.1055    8.1167 C.ar    1  UNL1        0.1397
      7 O          58.2600   88.0449    7.0808 O.3     1  UNL1       -0.5053
      8 C          59.9884   89.4177    8.4512 C.ar    1  UNL1        0.0735
      9 C          61.0716   89.4784    9.4871 C.ar    1  UNL1        0.1428
     10 O          61.7168   90.7906    9.8216 O.3     1  UNL1       -0.5052
     11 C          61.5095   88.2269   10.1885 C.ar    1  UNL1        0.1104
     12 C          62.5927   88.2875   11.2244 C.ar    1  UNL1        0.2382
     13 O          63.2379   89.5997   11.5589 O.2     1  UNL1       -0.2830
     14 H          57.8570   87.2252    6.8718 H       1  UNL1        0.2922
     15 H          61.4432   91.5723    9.3834 H       1  UNL1        0.2922
     16 C          62.8234   84.4724   12.2927 C.ar    1  UNL1        0.0379
     17 C          63.8547   83.5824   11.6648 C.ar    1  UNL1        0.0062
     18 C          64.2926   82.3310   12.3662 C.ar    1  UNL1        0.0367
     19 C          63.6992   81.9695   13.6955 C.ar    1  UNL1        0.1337
     20 O          64.1372   80.7179   14.3970 O.3     1  UNL1       -0.5055
     21 C          62.6679   82.8594   14.3235 C.ar    1  UNL1        0.0367
     22 C          62.2299   84.1108   13.6220 C.ar    1  UNL1        0.0062
     23 H          64.7814   80.1620   14.0047 H       1  UNL1        0.2922
     24 O          64.1138   87.0967   12.9617 O.3     1  UNL1       -0.4441
     25 C          62.7135   85.3047   17.6338 C.3     1  UNL1        0.0349
     26 C          63.0641   86.4529   16.7345 C.3     1  UNL1        0.1482
     27 O          63.4137   86.2007   15.2977 O.3     1  UNL1       -0.3186
     28 C          63.7642   87.3489   14.3984 C.3     1  UNL1        0.3181
     29 C          63.7652   88.7493   14.9358 C.3     1  UNL1        0.2105
     30 O          64.1158   89.8975   14.0365 O.3     1  UNL1       -0.3766
     31 C          63.4157   89.0015   16.3726 C.3     1  UNL1        0.1727
     32 O          63.4167   90.4019   16.9100 O.3     1  UNL1       -0.3793
     33 C          63.0651   87.8534   17.2719 C.3     1  UNL1        0.1669
     34 O          62.7155   88.1056   18.7086 O.3     1  UNL1       -0.3795
     35 H          64.3141   89.5632   13.1478 H       1  UNL1        0.2107
     36 H          63.1704   90.3884   17.8481 H       1  UNL1        0.2105
     37 H          62.5164   87.2629   19.1457 H       1  UNL1        0.2105
@<TRIPOS>BOND
     1    26    25    1
     2    26    27    1
     3    27    28    1
     4    28    24    1
     5    24     1    1
     6     1     2   ar
     7     2    16    1
     8    16    17   ar
     9    17    18   ar
    10    18    19   ar
    11    19    20    1
    12    19    21   ar
    13    21    22   ar
    14     2     3   ar
    15     3     4   ar
    16     4     5   ar
    17     5     6   ar
    18     6     7    1
    19     6     8   ar
    20     8     9   ar
    21     9    10    1
    22     9    11   ar
    23    11    12   ar
    24    12    13    2
    25    28    29    1
    26    29    30    1
    27    29    31    1
    28    31    32    1
    29    31    33    1
    30    33    34    1
    31    33    26    1
    32    12     1   ar
    33    22    16   ar
    34    11     4   ar
    35    20    23    1
    36     7    14    1
    37    10    15    1
    38    30    35    1
    39    32    36    1
    40    34    37    1
@<TRIPOS>MOLECULE
*****
 37 40 0 0 0
SMALL
GASTEIGER

@<TRIPOS>ATOM
      1 C          63.1988   87.9646   12.5156 C.ar    1  UNL1        0.2144
      2 C          63.1111   89.4614   12.4743 C.ar    1  UNL1        0.1822
      3 O          62.3014   90.1361   11.4069 O.2     1  UNL1       -0.4500
      4 C          61.5795   89.3138   10.3808 C.ar    1  UNL1        0.1545
      5 C          60.7698   89.9885    9.3135 C.ar    1  UNL1        0.0744
      6 C          60.0479   89.1662    8.2875 C.ar    1  UNL1        0.1397
      7 O          59.2382   89.8409    7.2200 O.3     1  UNL1       -0.5053
      8 C          60.1356   87.6694    8.3289 C.ar    1  UNL1        0.0735
      9 C          60.9452   86.9947    9.3962 C.ar    1  UNL1        0.1428
     10 O          61.0330   85.4979    9.4376 O.3     1  UNL1       -0.5052
     11 C          61.6672   87.8170   10.4222 C.ar    1  UNL1        0.1104
     12 C          62.4769   87.1424   11.4896 C.ar    1  UNL1        0.2382
     13 O          62.5646   85.6455   11.5310 O.2     1  UNL1       -0.2830
     14 H          59.1834   90.7759    7.1942 H       1  UNL1        0.2922
     15 H          60.5820   84.9843    8.7967 H       1  UNL1        0.2922
     16 C          63.8331   90.2837   13.5003 C.ar    1  UNL1        0.0379
     17 C          64.9970   91.1378   13.0933 C.ar    1  UNL1        0.0062
     18 C          65.7189   91.9599   14.1194 C.ar    1  UNL1        0.0367
     19 C          65.2769   91.9280   15.5524 C.ar    1  UNL1        0.1337
     20 O          65.9989   92.7503   16.5785 O.3     1  UNL1       -0.5055
     21 C          64.1129   91.0740   15.9594 C.ar    1  UNL1        0.0367
     22 C          63.3910   90.2518   14.9334 C.ar    1  UNL1        0.0062
     23 H          66.7260   93.2838   16.3243 H       1  UNL1        0.2922
     24 O          64.0085   87.2900   13.5831 O.3     1  UNL1       -0.4441
     25 C          64.6005   82.3832   11.9790 C.3     1  UNL1        0.0349
     26 C          64.1506   83.3639   13.0209 C.3     1  UNL1        0.1482
     27 O          64.3045   84.8366   12.7810 O.3     1  UNL1       -0.3186
     28 C          63.8546   85.8173   13.8230 C.3     1  UNL1        0.3181
     29 C          63.2508   85.3254   15.1050 C.3     1  UNL1        0.2105
     30 O          62.8009   86.3061   16.1469 O.3     1  UNL1       -0.3766
     31 C          63.0969   83.8527   15.3449 C.3     1  UNL1        0.1727
     32 O          62.4930   83.3608   16.6268 O.3     1  UNL1       -0.3793
     33 C          63.5467   82.8720   14.3029 C.3     1  UNL1        0.1669
     34 O          63.3928   81.3993   14.5429 O.3     1  UNL1       -0.3795
     35 H          62.9706   87.2090   15.8358 H       1  UNL1        0.2107
     36 H          62.4671   82.3911   16.6208 H       1  UNL1        0.2105
     37 H          63.7306   80.9098   13.7766 H       1  UNL1        0.2105
@<TRIPOS>BOND
     1    26    25    1
     2    26    27    1
     3    27    28    1
     4    28    24    1
     5    24     1    1
     6     1     2   ar
     7     2    16    1
     8    16    17   ar
     9    17    18   ar
    10    18    19   ar
    11    19    20    1
    12    19    21   ar
    13    21    22   ar
    14     2     3   ar
    15     3     4   ar
    16     4     5   ar
    17     5     6   ar
    18     6     7    1
    19     6     8   ar
    20     8     9   ar
    21     9    10    1
    22     9    11   ar
    23    11    12   ar
    24    12    13    2
    25    28    29    1
    26    29    30    1
    27    29    31    1
    28    31    32    1
    29    31    33    1
    30    33    34    1
    31    33    26    1
    32    12     1   ar
    33    22    16   ar
    34    11     4   ar
    35    20    23    1
    36     7    14    1
    37    10    15    1
    38    30    35    1
    39    32    36    1
    40    34    37    1
@<TRIPOS>MOLECULE
*****
 37 40 0 0 0
SMALL
GASTEIGER

@<TRIPOS>ATOM
      1 C          63.1554   90.4328   12.5664 C.ar    1  UNL1        0.2144
      2 C          63.1311   90.3510   11.0688 C.ar    1  UNL1        0.1822
      3 O          64.0389   91.2250   10.2551 O.2     1  UNL1       -0.4500
      4 C          64.9710   92.1808   10.9391 C.ar    1  UNL1        0.1545
      5 C          65.8787   93.0548   10.1254 C.ar    1  UNL1        0.0744
      6 C          66.8107   94.0106   10.8093 C.ar    1  UNL1        0.1397
      7 O          67.7186   94.8846    9.9957 O.3     1  UNL1       -0.5053
      8 C          66.8350   94.0924   12.3069 C.ar    1  UNL1        0.0735
      9 C          65.9272   93.2184   13.1206 C.ar    1  UNL1        0.1428
     10 O          65.9515   93.3002   14.6181 O.3     1  UNL1       -0.5052
     11 C          64.9952   92.2626   12.4366 C.ar    1  UNL1        0.1104
     12 C          64.0874   91.3886   13.2503 C.ar    1  UNL1        0.2382
     13 O          64.1116   91.4704   14.7479 O.2     1  UNL1       -0.2830
     14 H          67.7034   94.8335    9.0602 H       1  UNL1        0.2922
     15 H          66.5337   93.8973   15.0453 H       1  UNL1        0.2922
     16 C          62.1991   89.3951   10.3849 C.ar    1  UNL1        0.0379
     17 C          60.9730   89.9102    9.6909 C.ar    1  UNL1        0.0062
     18 C          60.0411   88.9543    9.0071 C.ar    1  UNL1        0.0367
     19 C          60.3351   87.4835    9.0172 C.ar    1  UNL1        0.1337
     20 O          59.4030   86.5276    8.3332 O.3     1  UNL1       -0.5055
     21 C          61.5611   86.9684    9.7111 C.ar    1  UNL1        0.0367
     22 C          62.4931   87.9243   10.3950 C.ar    1  UNL1        0.0062
     23 H          58.6371   86.8493    7.8998 H       1  UNL1        0.2922
     24 O          62.2475   89.5587   13.3800 O.3     1  UNL1       -0.4441
     25 C          64.7179   84.9949   13.6422 C.3     1  UNL1        0.0349
     26 C          64.0542   86.1539   14.3250 C.3     1  UNL1        0.1482
     27 O          63.4827   87.2768   13.5111 O.3     1  UNL1       -0.3186
     28 C          62.8190   88.4358   14.1939 C.3     1  UNL1        0.3181
     29 C          62.7266   88.4718   15.6906 C.3     1  UNL1        0.2105
     30 O          62.0629   89.6307   16.3734 O.3     1  UNL1       -0.3766
     31 C          63.2981   87.3489   16.5046 C.3     1  UNL1        0.1727
     32 O          63.2057   87.3849   18.0012 O.3     1  UNL1       -0.3793
     33 C          63.9618   86.1899   15.8218 C.3     1  UNL1        0.1669
     34 O          64.5332   85.0670   16.6357 O.3     1  UNL1       -0.3795
     35 H          61.7512   90.2632   15.7072 H       1  UNL1        0.2107
     36 H          63.6206   86.5894   18.3700 H       1  UNL1        0.2105
     37 H          64.9226   84.4043   16.0440 H       1  UNL1        0.2105
@<TRIPOS>BOND
     1    26    25    1
     2    26    27    1
     3    27    28    1
     4    28    24    1
     5    24     1    1
     6     1     2   ar
     7     2    16    1
     8    16    17   ar
     9    17    18   ar
    10    18    19   ar
    11    19    20    1
    12    19    21   ar
    13    21    22   ar
    14     2     3   ar
    15     3     4   ar
    16     4     5   ar
    17     5     6   ar
    18     6     7    1
    19     6     8   ar
    20     8     9   ar
    21     9    10    1
    22     9    11   ar
    23    11    12   ar
    24    12    13    2
    25    28    29    1
    26    29    30    1
    27    29    31    1
    28    31    32    1
    29    31    33    1
    30    33    34    1
    31    33    26    1
    32    12     1   ar
    33    22    16   ar
    34    11     4   ar
    35    20    23    1
    36     7    14    1
    37    10    15    1
    38    30    35    1
    39    32    36    1
    40    34    37    1
