@<TRIPOS>MOLECULE
*****
 33 37 0 0 0
SMALL
GASTEIGER

@<TRIPOS>ATOM
      1 C          62.7817   86.9415   11.9694 C.2     1  UNL1        0.2506
      2 O          63.5998   87.5500   13.0695 O.2     1  UNL1       -0.2699
      3 N          61.7661   87.7724   11.2426 N.am    1  UNL1       -0.2723
      4 C          60.9479   87.1640   10.1424 C.3     1  UNL1        0.1257
      5 C          59.9323   87.9948    9.4157 C.3     1  UNL1        0.1637
      6 O          59.7348   89.4341    9.7891 O.3     1  UNL1       -0.3502
      7 C          60.5530   90.0426   10.8893 C.3     1  UNL1        0.1622
      8 C          61.5686   89.2117   11.6161 C.3     1  UNL1        0.1096
      9 C          63.5715   81.1844   10.4756 C.3     1  UNL1        0.0311
     10 C          63.3740   82.6237   10.8491 C.ar    1  UNL1       -0.0203
     11 C          63.2136   83.6612    9.7778 C.ar    1  UNL1       -0.0040
     12 C          63.0162   85.1005   10.1512 C.ar    1  UNL1        0.0058
     13 C          62.9791   85.5022   11.5959 C.ar    1  UNL1        0.0729
     14 C          63.1395   84.4647   12.6672 C.ar    1  UNL1        0.1069
     15 C          63.3370   83.0254   12.2938 C.ar    1  UNL1        0.0168
     16 N          63.1025   84.8664   14.1120 N.ar    1  UNL1       -0.1477
     17 N          64.2539   85.4078   14.9064 N.ar    1  UNL1       -0.1447
     18 C          63.7706   85.6732   16.3013 C.ar    1  UNL1        0.1446
     19 C          62.3204   85.2958   16.3691 C.ar    1  UNL1        0.1446
     20 N          61.9075   84.7971   15.0160 N.ar    1  UNL1       -0.1447
     21 C          62.3868   89.8201   12.7162 C.3     1  UNL1        0.0484
     22 C          63.5433   90.7156   12.3835 C.ar    1  UNL1       -0.0229
     23 C          64.5421   91.0755   13.4431 C.ar    1  UNL1        0.0146
     24 C          65.6986   91.9710   13.1104 C.ar    1  UNL1        0.0825
     25 C          65.8562   92.5065   11.7182 C.ar    1  UNL1        0.0188
     26 C          64.8574   92.1466   10.6586 C.ar    1  UNL1       -0.0030
     27 C          63.7009   91.2511   10.9913 C.ar    1  UNL1       -0.0256
     28 C          62.7020   90.8912    9.9317 C.3     1  UNL1        0.0307
     29 N          66.6975   92.3309   14.1700 N.ar    1  UNL1       -0.2282
     30 C          66.4010   92.5461   15.6246 C.ar    1  UNL1        0.1020
     31 C          67.6884   92.8870   16.3147 C.ar    1  UNL1        0.0431
     32 C          68.7807   92.8826   15.2865 C.ar    1  UNL1        0.1221
     33 N          68.1682   92.5389   13.9611 N.ar    1  UNL1       -0.1635
@<TRIPOS>BOND
     1     9    10    1
     2    10    11   ar
     3    11    12   ar
     4    12    13   ar
     5    13     1    1
     6     1     2    2
     7     1     3   am
     8     3     4    1
     9     4     5    1
    10     5     6    1
    11     6     7    1
    12     7     8    1
    13     8    21    1
    14    21    22    1
    15    22    23   ar
    16    23    24   ar
    17    24    29    1
    18    29    30   ar
    19    30    31   ar
    20    31    32   ar
    21    32    33   ar
    22    24    25   ar
    23    25    26   ar
    24    26    27   ar
    25    27    28    1
    26    13    14   ar
    27    14    16    1
    28    16    17   ar
    29    17    18   ar
    30    18    19   ar
    31    19    20   ar
    32    14    15   ar
    33    15    10   ar
    34     8     3    1
    35    27    22   ar
    36    20    16   ar
    37    33    29   ar
@<TRIPOS>MOLECULE
*****
 33 37 0 0 0
SMALL
GASTEIGER

@<TRIPOS>ATOM
      1 C          63.0079   87.1312   12.3769 C.2     1  UNL1        0.2506
      2 O          63.5308   87.5008   13.7334 O.2     1  UNL1       -0.2699
      3 N          62.3878   88.1792   11.5011 N.am    1  UNL1       -0.2723
      4 C          61.8649   87.8097   10.1446 C.3     1  UNL1        0.1257
      5 C          61.2447   88.8577    9.2688 C.3     1  UNL1        0.1637
      6 O          61.1475   90.2753    9.7495 O.3     1  UNL1       -0.3502
      7 C          61.6703   90.6448   11.1059 C.3     1  UNL1        0.1622
      8 C          62.2905   89.5968   11.9818 C.3     1  UNL1        0.1096
      9 C          63.3971   81.4609   10.4543 C.3     1  UNL1        0.0311
     10 C          63.2998   82.8785   10.9350 C.ar    1  UNL1       -0.0203
     11 C          63.2352   84.0034    9.9448 C.ar    1  UNL1       -0.0040
     12 C          63.1379   85.4210   10.4255 C.ar    1  UNL1        0.0058
     13 C          63.1052   85.7137   11.8963 C.ar    1  UNL1        0.0729
     14 C          63.1698   84.5888   12.8864 C.ar    1  UNL1        0.1069
     15 C          63.2670   83.1712   12.4057 C.ar    1  UNL1        0.0168
     16 N          63.1370   84.8814   14.3573 N.ar    1  UNL1       -0.1477
     17 N          64.3173   85.2373   15.2119 N.ar    1  UNL1       -0.1447
     18 C          63.8281   85.4454   16.6145 C.ar    1  UNL1        0.1446
     19 C          62.3454   85.2180   16.6267 C.ar    1  UNL1        0.1446
     20 N          61.9184   84.8695   15.2317 N.ar    1  UNL1       -0.1447
     21 C          62.8134   89.9664   13.3382 C.3     1  UNL1        0.0484
     22 C          64.0158   90.8546   13.4621 C.ar    1  UNL1       -0.0229
     23 C          64.6515   91.4320   12.2324 C.ar    1  UNL1        0.0146
     24 C          65.8539   92.3202   12.3563 C.ar    1  UNL1        0.0825
     25 C          66.4206   92.6309   13.7099 C.ar    1  UNL1        0.0188
     26 C          65.7848   92.0535   14.9397 C.ar    1  UNL1       -0.0030
     27 C          64.5824   91.1653   14.8158 C.ar    1  UNL1       -0.0256
     28 C          63.9466   90.5878   16.0456 C.3     1  UNL1        0.0307
     29 N          66.4897   92.8977   11.1265 N.ar    1  UNL1       -0.2282
     30 C          66.0189   94.1082   10.3761 C.ar    1  UNL1        0.1020
     31 C          66.9461   94.3247    9.2170 C.ar    1  UNL1        0.0431
     32 C          67.9900   93.2480    9.2511 C.ar    1  UNL1        0.1221
     33 N          67.7079   92.3661   10.4312 N.ar    1  UNL1       -0.1635
@<TRIPOS>BOND
     1     9    10    1
     2    10    11   ar
     3    11    12   ar
     4    12    13   ar
     5    13     1    1
     6     1     2    2
     7     1     3   am
     8     3     4    1
     9     4     5    1
    10     5     6    1
    11     6     7    1
    12     7     8    1
    13     8    21    1
    14    21    22    1
    15    22    23   ar
    16    23    24   ar
    17    24    29    1
    18    29    30   ar
    19    30    31   ar
    20    31    32   ar
    21    32    33   ar
    22    24    25   ar
    23    25    26   ar
    24    26    27   ar
    25    27    28    1
    26    13    14   ar
    27    14    16    1
    28    16    17   ar
    29    17    18   ar
    30    18    19   ar
    31    19    20   ar
    32    14    15   ar
    33    15    10   ar
    34     8     3    1
    35    27    22   ar
    36    20    16   ar
    37    33    29   ar
@<TRIPOS>MOLECULE
*****
 33 37 0 0 0
SMALL
GASTEIGER

@<TRIPOS>ATOM
      1 C          63.4241   87.4751   13.1729 C.2     1  UNL1        0.2506
      2 O          63.4000   88.1626   11.8400 O.2     1  UNL1       -0.2699
      3 N          63.3398   88.2819   14.4346 N.am    1  UNL1       -0.2723
      4 C          63.3640   87.5944   15.7676 C.3     1  UNL1        0.1257
      5 C          63.2796   88.4013   17.0292 C.3     1  UNL1        0.1637
      6 O          63.1711   89.8956   16.9580 O.3     1  UNL1       -0.3502
      7 C          63.1470   90.5832   15.6251 C.3     1  UNL1        0.1622
      8 C          63.2313   89.7763   14.3633 C.3     1  UNL1        0.1096
      9 C          63.8582   81.4976   13.4579 C.3     1  UNL1        0.0311
     10 C          63.7497   82.9919   13.3867 C.ar    1  UNL1       -0.0203
     11 C          64.4281   83.8432   14.4186 C.ar    1  UNL1       -0.0040
     12 C          64.3196   85.3376   14.3474 C.ar    1  UNL1        0.0058
     13 C          63.5327   85.9807   13.2442 C.ar    1  UNL1        0.0729
     14 C          62.8542   85.1294   12.2122 C.ar    1  UNL1        0.1069
     15 C          62.9627   83.6350   12.2835 C.ar    1  UNL1        0.0168
     16 N          62.0672   85.7725   11.1090 N.ar    1  UNL1       -0.1477
     17 N          60.8542   86.6382   11.2801 N.ar    1  UNL1       -0.1447
     18 C          60.3923   87.0635    9.9178 C.ar    1  UNL1        0.1446
     19 C          61.3199   86.4606    8.9048 C.ar    1  UNL1        0.1446
     20 N          62.3550   85.6627    9.6409 N.ar    1  UNL1       -0.1447
     21 C          63.2071   90.4638   13.0304 C.3     1  UNL1        0.0484
     22 C          64.3662   91.3155   12.6047 C.ar    1  UNL1       -0.0229
     23 C          65.4436   91.6622   13.5890 C.ar    1  UNL1        0.0146
     24 C          66.6027   92.5139   13.1632 C.ar    1  UNL1        0.0825
     25 C          66.6843   93.0188   11.7532 C.ar    1  UNL1        0.0188
     26 C          65.6069   92.6721   10.7689 C.ar    1  UNL1       -0.0030
     27 C          64.4478   91.8204   11.1946 C.ar    1  UNL1       -0.0256
     28 C          63.3704   91.4737   10.2102 C.3     1  UNL1        0.0307
     29 N          67.6801   92.8606   14.1477 N.ar    1  UNL1       -0.2282
     30 C          67.5182   93.7220   15.3649 C.ar    1  UNL1        0.1020
     31 C          68.8466   93.8006   16.0572 C.ar    1  UNL1        0.0431
     32 C          69.8295   92.9876   15.2677 C.ar    1  UNL1        0.1221
     33 N          69.1085   92.4067   14.0876 N.ar    1  UNL1       -0.1635
@<TRIPOS>BOND
     1     9    10    1
     2    10    11   ar
     3    11    12   ar
     4    12    13   ar
     5    13     1    1
     6     1     2    2
     7     1     3   am
     8     3     4    1
     9     4     5    1
    10     5     6    1
    11     6     7    1
    12     7     8    1
    13     8    21    1
    14    21    22    1
    15    22    23   ar
    16    23    24   ar
    17    24    29    1
    18    29    30   ar
    19    30    31   ar
    20    31    32   ar
    21    32    33   ar
    22    24    25   ar
    23    25    26   ar
    24    26    27   ar
    25    27    28    1
    26    13    14   ar
    27    14    16    1
    28    16    17   ar
    29    17    18   ar
    30    18    19   ar
    31    19    20   ar
    32    14    15   ar
    33    15    10   ar
    34     8     3    1
    35    27    22   ar
    36    20    16   ar
    37    33    29   ar
@<TRIPOS>MOLECULE
*****
 33 37 0 0 0
SMALL
GASTEIGER

@<TRIPOS>ATOM
      1 C          65.0349   91.3467   12.7013 C.2     1  UNL1        0.2506
      2 O          65.7977   90.8902   13.9095 O.2     1  UNL1       -0.2699
      3 N          63.9100   90.5120   12.1650 N.am    1  UNL1       -0.2723
      4 C          63.1472   90.9685   10.9568 C.3     1  UNL1        0.1257
      5 C          62.0222   90.1337   10.4205 C.3     1  UNL1        0.1637
      6 O          61.6601   88.8424   11.0923 O.3     1  UNL1       -0.3502
      7 C          62.4228   88.3859   12.3005 C.3     1  UNL1        0.1622
      8 C          63.5478   89.2207   12.8369 C.3     1  UNL1        0.1096
      9 C          66.4835   96.5119   10.0139 C.3     1  UNL1        0.0311
     10 C          66.1214   95.2206   10.6858 C.ar    1  UNL1       -0.0203
     11 C          65.2017   94.2521   10.0031 C.ar    1  UNL1       -0.0040
     12 C          64.8395   92.9608   10.6749 C.ar    1  UNL1        0.0058
     13 C          65.3971   92.6380   12.0295 C.ar    1  UNL1        0.0729
     14 C          66.3168   93.6065   12.7122 C.ar    1  UNL1        0.1069
     15 C          66.6789   94.8978   12.0403 C.ar    1  UNL1        0.0168
     16 N          66.8743   93.2837   14.0668 N.ar    1  UNL1       -0.1477
     17 N          68.3012   92.9368   14.3732 N.ar    1  UNL1       -0.1447
     18 C          68.4117   92.6899   15.8486 C.ar    1  UNL1        0.1446
     19 C          67.0531   92.8842   16.4541 C.ar    1  UNL1        0.1446
     20 N          66.1030   93.2512   15.3529 N.ar    1  UNL1       -0.1447
     21 C          64.3106   88.7641   14.0450 C.3     1  UNL1        0.0484
     22 C          63.9021   87.5106   14.7604 C.ar    1  UNL1       -0.0229
     23 C          64.0304   86.1814   14.0772 C.ar    1  UNL1        0.0146
     24 C          63.6219   84.9279   14.7925 C.ar    1  UNL1        0.0825
     25 C          63.0851   85.0035   16.1911 C.ar    1  UNL1        0.0188
     26 C          62.9568   86.3326   16.8743 C.ar    1  UNL1       -0.0030
     27 C          63.3653   87.5862   16.1590 C.ar    1  UNL1       -0.0256
     28 C          63.2370   88.9154   16.8423 C.3     1  UNL1        0.0307
     29 N          63.7503   83.5986   14.1092 N.ar    1  UNL1       -0.2282
     30 C          64.2304   83.3711   12.7065 C.ar    1  UNL1        0.1020
     31 C          64.1979   81.8955   12.4390 C.ar    1  UNL1        0.0431
     32 C          63.6977   81.2111   13.6765 C.ar    1  UNL1        0.1221
     33 N          63.4210   82.2637   14.7087 N.ar    1  UNL1       -0.1635
@<TRIPOS>BOND
     1     9    10    1
     2    10    11   ar
     3    11    12   ar
     4    12    13   ar
     5    13     1    1
     6     1     2    2
     7     1     3   am
     8     3     4    1
     9     4     5    1
    10     5     6    1
    11     6     7    1
    12     7     8    1
    13     8    21    1
    14    21    22    1
    15    22    23   ar
    16    23    24   ar
    17    24    29    1
    18    29    30   ar
    19    30    31   ar
    20    31    32   ar
    21    32    33   ar
    22    24    25   ar
    23    25    26   ar
    24    26    27   ar
    25    27    28    1
    26    13    14   ar
    27    14    16    1
    28    16    17   ar
    29    17    18   ar
    30    18    19   ar
    31    19    20   ar
    32    14    15   ar
    33    15    10   ar
    34     8     3    1
    35    27    22   ar
    36    20    16   ar
    37    33    29   ar
@<TRIPOS>MOLECULE
*****
 33 37 0 0 0
SMALL
GASTEIGER

@<TRIPOS>ATOM
      1 C          63.9941   85.2392   14.2265 C.2     1  UNL1        0.2506
      2 O          65.0011   85.9229   13.3499 O.2     1  UNL1       -0.2699
      3 N          63.3971   85.9689   15.3932 N.am    1  UNL1       -0.2723
      4 C          62.3901   85.2852   16.2699 C.3     1  UNL1        0.1257
      5 C          61.7932   86.0149   17.4365 C.3     1  UNL1        0.1637
      6 O          62.2032   87.4283   17.7266 O.3     1  UNL1       -0.3502
      7 C          63.2102   88.1120   16.8500 C.3     1  UNL1        0.1622
      8 C          63.8072   87.3823   15.6833 C.3     1  UNL1        0.1096
      9 C          62.3538   79.5856   13.0661 C.3     1  UNL1        0.0311
     10 C          62.7639   80.9990   13.3562 C.ar    1  UNL1       -0.0203
     11 C          63.5240   81.3172   14.6096 C.ar    1  UNL1       -0.0040
     12 C          63.9340   82.7306   14.8997 C.ar    1  UNL1        0.0058
     13 C          63.5840   83.8258   13.9364 C.ar    1  UNL1        0.0729
     14 C          62.8239   83.5076   12.6831 C.ar    1  UNL1        0.1069
     15 C          62.4138   82.0942   12.3930 C.ar    1  UNL1        0.0168
     16 N          62.4738   84.6029   11.7197 N.ar    1  UNL1       -0.1477
     17 N          61.5919   85.7816   12.0074 N.ar    1  UNL1       -0.1447
     18 C          61.5172   86.6189   10.7651 C.ar    1  UNL1        0.1446
     19 C          62.3530   85.9576    9.7096 C.ar    1  UNL1        0.1446
     20 N          62.9442   84.7117   10.2996 N.ar    1  UNL1       -0.1447
     21 C          64.8142   88.0660   14.8067 C.3     1  UNL1        0.0484
     22 C          64.3938   89.2105   13.9330 C.ar    1  UNL1       -0.0229
     23 C          63.2726   89.0330   12.9525 C.ar    1  UNL1        0.0146
     24 C          62.8521   90.1775   12.0788 C.ar    1  UNL1        0.0825
     25 C          63.5529   91.4994   12.1855 C.ar    1  UNL1        0.0188
     26 C          64.6741   91.6769   13.1660 C.ar    1  UNL1       -0.0030
     27 C          65.0945   90.5324   14.0397 C.ar    1  UNL1       -0.0256
     28 C          66.2158   90.7099   15.0202 C.3     1  UNL1        0.0307
     29 N          61.7308   90.0000   11.0983 N.ar    1  UNL1       -0.2282
     30 C          60.2659   90.0301   11.4193 C.ar    1  UNL1        0.1020
     31 C          59.5073   89.8100   10.1441 C.ar    1  UNL1        0.0431
     32 C          60.5035   89.6439    9.0350 C.ar    1  UNL1        0.1221
     33 N          61.8777   89.7614    9.6247 N.ar    1  UNL1       -0.1635
@<TRIPOS>BOND
     1     9    10    1
     2    10    11   ar
     3    11    12   ar
     4    12    13   ar
     5    13     1    1
     6     1     2    2
     7     1     3   am
     8     3     4    1
     9     4     5    1
    10     5     6    1
    11     6     7    1
    12     7     8    1
    13     8    21    1
    14    21    22    1
    15    22    23   ar
    16    23    24   ar
    17    24    29    1
    18    29    30   ar
    19    30    31   ar
    20    31    32   ar
    21    32    33   ar
    22    24    25   ar
    23    25    26   ar
    24    26    27   ar
    25    27    28    1
    26    13    14   ar
    27    14    16    1
    28    16    17   ar
    29    17    18   ar
    30    18    19   ar
    31    19    20   ar
    32    14    15   ar
    33    15    10   ar
    34     8     3    1
    35    27    22   ar
    36    20    16   ar
    37    33    29   ar
@<TRIPOS>MOLECULE
*****
 33 37 0 0 0
SMALL
GASTEIGER

@<TRIPOS>ATOM
      1 C          63.4529   87.6592   13.2997 C.2     1  UNL1        0.2506
      2 O          63.5181   88.7734   12.2975 O.2     1  UNL1       -0.2699
      3 N          63.3749   87.9719   14.7647 N.am    1  UNL1       -0.2723
      4 C          63.3096   86.8577   15.7669 C.3     1  UNL1        0.1257
      5 C          63.2316   87.1704   17.2319 C.3     1  UNL1        0.1637
      6 O          63.2188   88.5971   17.6946 O.3     1  UNL1       -0.3502
      7 C          63.2840   89.7113   16.6925 C.3     1  UNL1        0.1622
      8 C          63.3620   89.3987   15.2274 C.3     1  UNL1        0.1096
      9 C          63.5042   81.9522   11.4486 C.3     1  UNL1        0.0311
     10 C          63.4913   83.3789   11.9114 C.ar    1  UNL1       -0.0203
     11 C          64.3283   83.7944   13.0847 C.ar    1  UNL1       -0.0040
     12 C          64.3155   85.2211   13.5475 C.ar    1  UNL1        0.0058
     13 C          63.4657   86.2325   12.8369 C.ar    1  UNL1        0.0729
     14 C          62.6287   85.8170   11.6636 C.ar    1  UNL1        0.1069
     15 C          62.6415   84.3903   11.2008 C.ar    1  UNL1        0.0168
     16 N          61.7788   86.8284   10.9530 N.ar    1  UNL1       -0.1477
     17 N          62.0320   87.3869    9.5840 N.ar    1  UNL1       -0.1447
     18 C          60.9362   88.3625    9.2715 C.ar    1  UNL1        0.1446
     19 C          60.0059   88.4068   10.4473 C.ar    1  UNL1        0.1446
     20 N          60.5266   87.4588   11.4865 N.ar    1  UNL1       -0.1447
     21 C          63.4273   90.5128   14.2253 C.3     1  UNL1        0.0484
     22 C          64.6606   91.3608   14.1257 C.ar    1  UNL1       -0.0229
     23 C          65.3330   91.5537   12.7988 C.ar    1  UNL1        0.0146
     24 C          66.5662   92.4017   12.6992 C.ar    1  UNL1        0.0825
     25 C          67.1271   93.0567   13.9265 C.ar    1  UNL1        0.0188
     26 C          66.4547   92.8638   15.2534 C.ar    1  UNL1       -0.0030
     27 C          65.2214   92.0158   15.3530 C.ar    1  UNL1       -0.0256
     28 C          64.5490   91.8229   16.6799 C.3     1  UNL1        0.0307
     29 N          67.2387   92.5946   11.3723 N.ar    1  UNL1       -0.2282
     30 C          66.7413   93.4550   10.2487 C.ar    1  UNL1        0.1020
     31 C          67.7217   93.3532    9.1180 C.ar    1  UNL1        0.0431
     32 C          68.8249   92.4298    9.5428 C.ar    1  UNL1        0.1221
     33 N          68.5264   91.9610   10.9360 N.ar    1  UNL1       -0.1635
@<TRIPOS>BOND
     1     9    10    1
     2    10    11   ar
     3    11    12   ar
     4    12    13   ar
     5    13     1    1
     6     1     2    2
     7     1     3   am
     8     3     4    1
     9     4     5    1
    10     5     6    1
    11     6     7    1
    12     7     8    1
    13     8    21    1
    14    21    22    1
    15    22    23   ar
    16    23    24   ar
    17    24    29    1
    18    29    30   ar
    19    30    31   ar
    20    31    32   ar
    21    32    33   ar
    22    24    25   ar
    23    25    26   ar
    24    26    27   ar
    25    27    28    1
    26    13    14   ar
    27    14    16    1
    28    16    17   ar
    29    17    18   ar
    30    18    19   ar
    31    19    20   ar
    32    14    15   ar
    33    15    10   ar
    34     8     3    1
    35    27    22   ar
    36    20    16   ar
    37    33    29   ar
@<TRIPOS>MOLECULE
*****
 33 37 0 0 0
SMALL
GASTEIGER

@<TRIPOS>ATOM
      1 C          62.7495   88.9709   11.6435 C.2     1  UNL1        0.2506
      2 O          62.9653   87.8230   12.5846 O.2     1  UNL1       -0.2699
      3 N          61.7019   88.8772   10.5741 N.am    1  UNL1       -0.2723
      4 C          61.4860   90.0251    9.6329 C.3     1  UNL1        0.1257
      5 C          60.4384   89.9314    8.5636 C.3     1  UNL1        0.1637
      6 O          59.6065   88.6898    8.4353 O.3     1  UNL1       -0.3502
      7 C          59.8223   87.5419    9.3764 C.3     1  UNL1        0.1622
      8 C          60.8700   87.6356   10.4459 C.3     1  UNL1        0.1096
      9 C          66.0769   93.9373   12.1566 C.3     1  UNL1        0.0311
     10 C          65.2450   92.6957   12.0283 C.ar    1  UNL1       -0.0203
     11 C          64.7096   92.2868   10.6882 C.ar    1  UNL1       -0.0040
     12 C          63.8778   91.0452   10.5599 C.ar    1  UNL1        0.0058
     13 C          63.5813   90.2125   11.7718 C.ar    1  UNL1        0.0729
     14 C          64.1167   90.6215   13.1119 C.ar    1  UNL1        0.1069
     15 C          64.9486   91.8631   13.2402 C.ar    1  UNL1        0.0168
     16 N          63.8203   89.7888   14.3239 N.ar    1  UNL1       -0.1477
     17 N          64.5173   88.5188   14.7131 N.ar    1  UNL1       -0.1447
     18 C          63.9027   88.0250   15.9891 C.ar    1  UNL1        0.1446
     19 C          62.8258   88.9898   16.3886 C.ar    1  UNL1        0.1446
     20 N          62.7749   90.0798   15.3595 N.ar    1  UNL1       -0.1447
     21 C          61.0858   86.4877   11.3870 C.3     1  UNL1        0.0484
     22 C          61.9660   85.3421   10.9833 C.ar    1  UNL1       -0.0229
     23 C          62.1050   84.1499   11.8828 C.ar    1  UNL1        0.0146
     24 C          62.9851   83.0043   11.4791 C.ar    1  UNL1        0.0825
     25 C          63.7263   83.0510   10.1759 C.ar    1  UNL1        0.0188
     26 C          63.5872   84.2432    9.2763 C.ar    1  UNL1       -0.0030
     27 C          62.7071   85.3888    9.6800 C.ar    1  UNL1       -0.0256
     28 C          62.5681   86.5810    8.7804 C.3     1  UNL1        0.0307
     29 N          63.1242   81.8121   12.3788 N.ar    1  UNL1       -0.2282
     30 C          63.8840   81.7667   13.6713 C.ar    1  UNL1        0.1020
     31 C          63.7572   80.3825   14.2352 C.ar    1  UNL1        0.0431
     32 C          62.9190   79.5724   13.2911 C.ar    1  UNL1        0.1221
     33 N          62.5277   80.4560   12.1438 N.ar    1  UNL1       -0.1635
@<TRIPOS>BOND
     1     9    10    1
     2    10    11   ar
     3    11    12   ar
     4    12    13   ar
     5    13     1    1
     6     1     2    2
     7     1     3   am
     8     3     4    1
     9     4     5    1
    10     5     6    1
    11     6     7    1
    12     7     8    1
    13     8    21    1
    14    21    22    1
    15    22    23   ar
    16    23    24   ar
    17    24    29    1
    18    29    30   ar
    19    30    31   ar
    20    31    32   ar
    21    32    33   ar
    22    24    25   ar
    23    25    26   ar
    24    26    27   ar
    25    27    28    1
    26    13    14   ar
    27    14    16    1
    28    16    17   ar
    29    17    18   ar
    30    18    19   ar
    31    19    20   ar
    32    14    15   ar
    33    15    10   ar
    34     8     3    1
    35    27    22   ar
    36    20    16   ar
    37    33    29   ar
@<TRIPOS>MOLECULE
*****
 33 37 0 0 0
SMALL
GASTEIGER

@<TRIPOS>ATOM
      1 C          62.8764   89.5404   10.6236 C.2     1  UNL1        0.2506
      2 O          63.4072   88.6035    9.5795 O.2     1  UNL1       -0.2699
      3 N          61.5221   89.3048   11.2239 N.am    1  UNL1       -0.2723
      4 C          60.9911   90.2417   12.2681 C.3     1  UNL1        0.1257
      5 C          59.6368   90.0061   12.8683 C.3     1  UNL1        0.1637
      6 O          58.8134   88.8335   12.4244 O.3     1  UNL1       -0.3502
      7 C          59.3443   87.8966   11.3802 C.3     1  UNL1        0.1622
      8 C          60.6987   88.1322   10.7799 C.3     1  UNL1        0.1096
      9 C          66.1700   94.2308   12.3993 C.3     1  UNL1        0.0311
     10 C          65.3466   93.0582   11.9554 C.ar    1  UNL1       -0.0203
     11 C          64.7730   93.0261   10.5698 C.ar    1  UNL1       -0.0040
     12 C          63.9496   91.8535   10.1259 C.ar    1  UNL1        0.0058
     13 C          63.6998   90.7130   11.0676 C.ar    1  UNL1        0.0729
     14 C          64.2734   90.7451   12.4531 C.ar    1  UNL1        0.1069
     15 C          65.0968   91.9177   12.8971 C.ar    1  UNL1        0.0168
     16 N          64.0236   89.6045   13.3949 N.ar    1  UNL1       -0.1477
     17 N          63.9158   88.1568   13.0173 N.ar    1  UNL1       -0.1447
     18 C          63.6633   87.3690   14.2685 C.ar    1  UNL1        0.1446
     19 C          63.6151   88.3298   15.4194 C.ar    1  UNL1        0.1446
     20 N          63.8378   89.7114   14.8795 N.ar    1  UNL1       -0.1447
     21 C          61.2295   87.1953    9.7358 C.3     1  UNL1        0.0484
     22 C          62.0242   85.9902   10.1437 C.ar    1  UNL1       -0.0229
     23 C          62.1745   85.6475   11.5962 C.ar    1  UNL1        0.0146
     24 C          62.9692   84.4424   12.0041 C.ar    1  UNL1        0.0825
     25 C          63.6135   83.5801   10.9595 C.ar    1  UNL1        0.0188
     26 C          63.4632   83.9229    9.5069 C.ar    1  UNL1       -0.0030
     27 C          62.6685   85.1280    9.0991 C.ar    1  UNL1       -0.0256
     28 C          62.5182   85.4707    7.6464 C.3     1  UNL1        0.0307
     29 N          63.1195   84.0996   13.4567 N.ar    1  UNL1       -0.2282
     30 C          64.3366   83.5049   14.1009 C.ar    1  UNL1        0.1020
     31 C          64.0485   83.3291   15.5624 C.ar    1  UNL1        0.0431
     32 C          62.6532   83.8152   15.8215 C.ar    1  UNL1        0.1221
     33 N          62.0791   84.2914   14.5201 N.ar    1  UNL1       -0.1635
@<TRIPOS>BOND
     1     9    10    1
     2    10    11   ar
     3    11    12   ar
     4    12    13   ar
     5    13     1    1
     6     1     2    2
     7     1     3   am
     8     3     4    1
     9     4     5    1
    10     5     6    1
    11     6     7    1
    12     7     8    1
    13     8    21    1
    14    21    22    1
    15    22    23   ar
    16    23    24   ar
    17    24    29    1
    18    29    30   ar
    19    30    31   ar
    20    31    32   ar
    21    32    33   ar
    22    24    25   ar
    23    25    26   ar
    24    26    27   ar
    25    27    28    1
    26    13    14   ar
    27    14    16    1
    28    16    17   ar
    29    17    18   ar
    30    18    19   ar
    31    19    20   ar
    32    14    15   ar
    33    15    10   ar
    34     8     3    1
    35    27    22   ar
    36    20    16   ar
    37    33    29   ar
