@<TRIPOS>MOLECULE
*****
 31 35 0 0 0
SMALL
GASTEIGER

@<TRIPOS>ATOM
      1 C          59.3589   90.0796    6.3859 C.ar    1  UNL1        0.2098
      2 N          60.2023   90.3703    7.5918 N.ar    1  UNL1       -0.2089
      3 C          60.4850   89.0701    8.2842 C.ar    1  UNL1        0.1530
      4 C          59.8164   87.9757    7.5062 C.ar    1  UNL1        0.1453
      5 O          59.1204   88.5996    6.3330 O.2     1  UNL1       -0.4422
      6 C          59.8017   86.5024    7.7879 C.3     1  UNL1        0.0710
      7 C          60.4521   85.7597    8.9172 C.3     1  UNL1        0.0345
      8 C          61.2778   86.3067   10.0437 C.ar    1  UNL1       -0.0186
      9 C          61.7409   85.2162   10.9636 C.ar    1  UNL1       -0.0042
     10 C          62.5832   85.5505   12.1588 C.ar    1  UNL1       -0.0002
     11 C          62.9624   86.9754   12.4342 C.ar    1  UNL1        0.0001
     12 C          62.4994   88.0660   11.5144 C.ar    1  UNL1        0.0029
     13 C          61.6570   87.7316   10.3191 C.ar    1  UNL1        0.0366
     14 C          61.3042   88.9614    9.5360 C.2     1  UNL1        0.2155
     15 O          61.8416   90.2534   10.0763 O.2     1  UNL1       -0.2849
     16 C          63.0463   84.4599   13.0788 C.ar    1  UNL1        0.0027
     17 C          63.8727   84.7964   14.2845 C.ar    1  UNL1        0.0207
     18 C          64.3358   83.7059   15.2045 C.ar    1  UNL1        0.0984
     19 N          63.9726   82.2788   14.9186 N.ar    1  UNL1       -0.2481
     20 C          63.1462   81.9424   13.7128 C.ar    1  UNL1        0.0594
     21 C          62.7830   80.5154   13.4269 C.3     1  UNL1        0.0521
     22 C          62.6831   83.0330   12.7929 C.ar    1  UNL1        0.0147
     23 C          58.8445   91.0912    5.4052 C.3     1  UNL1        0.1116
     24 C          61.6140   92.8505    2.3255 C.ar    1  UNL1        0.1387
     25 C          62.1301   91.8435    3.3102 C.ar    1  UNL1        0.0366
     26 C          61.2068   91.2572    4.3367 C.ar    1  UNL1       -0.0007
     27 C          59.7676   91.6777    4.3786 C.ar    1  UNL1       -0.0127
     28 C          59.2515   92.6847    3.3939 C.ar    1  UNL1       -0.0007
     29 C          60.1747   93.2711    2.3673 C.ar    1  UNL1        0.0366
     30 C          64.0118   93.1742    1.3791 C.3     1  UNL1        0.2525
     31 O          62.5371   93.4370    1.2989 O.3     1  UNL1       -0.4714
@<TRIPOS>BOND
     1    30    31    1
     2    31    24    1
     3    24    25   ar
     4    25    26   ar
     5    26    27   ar
     6    27    23    1
     7    23     1    1
     8     1     2   ar
     9     2     3   ar
    10     3     4   ar
    11     4     5   ar
    12     4     6    1
    13     6     7    1
    14     7     8    1
    15     8     9   ar
    16     9    10   ar
    17    10    16    1
    18    16    17   ar
    19    17    18   ar
    20    18    19   ar
    21    19    20   ar
    22    20    21    1
    23    20    22   ar
    24    10    11   ar
    25    11    12   ar
    26    12    13   ar
    27    13    14    1
    28    14    15    2
    29    27    28   ar
    30    28    29   ar
    31    29    24   ar
    32     5     1   ar
    33    13     8   ar
    34    14     3    1
    35    22    16   ar
@<TRIPOS>MOLECULE
*****
 31 35 0 0 0
SMALL
GASTEIGER

@<TRIPOS>ATOM
      1 C          59.3173   90.6607    5.5117 C.ar    1  UNL1        0.2098
      2 N          60.7695   90.5751    5.1459 N.ar    1  UNL1       -0.2089
      3 C          61.0092   91.4905    3.9822 C.ar    1  UNL1        0.1530
      4 C          59.7051   92.1420    3.6286 C.ar    1  UNL1        0.1453
      5 O          58.6595   91.6291    4.5739 O.2     1  UNL1       -0.4422
      6 C          59.4203   93.1353    2.5413 C.3     1  UNL1        0.0710
      7 C          60.3693   93.7224    1.5389 C.3     1  UNL1        0.0345
      8 C          61.8374   93.4613    1.3763 C.ar    1  UNL1       -0.0186
      9 C          62.4137   94.2588    0.2442 C.ar    1  UNL1       -0.0042
     10 C          63.8718   94.1436   -0.0884 C.ar    1  UNL1       -0.0002
     11 C          64.7536   93.2309    0.7112 C.ar    1  UNL1        0.0001
     12 C          64.1773   92.4334    1.8434 C.ar    1  UNL1        0.0029
     13 C          62.7192   92.5486    2.1759 C.ar    1  UNL1        0.0366
     14 C          62.3506   91.6715    3.3356 C.2     1  UNL1        0.2155
     15 O          63.4716   90.8693    3.9270 O.2     1  UNL1       -0.2849
     16 C          64.4482   94.9412   -1.2206 C.ar    1  UNL1        0.0027
     17 C          65.4124   96.0551   -0.9386 C.ar    1  UNL1        0.0207
     18 C          65.9888   96.8526   -2.0707 C.ar    1  UNL1        0.0984
     19 N          65.6010   96.5362   -3.4848 N.ar    1  UNL1       -0.2481
     20 C          64.6368   95.4223   -3.7667 C.ar    1  UNL1        0.0594
     21 C          64.2490   95.1059   -5.1807 C.3     1  UNL1        0.0521
     22 C          64.0604   94.6248   -2.6346 C.ar    1  UNL1        0.0147
     23 C          58.6417   89.9097    6.6205 C.3     1  UNL1        0.1116
     24 C          60.9488   86.8805    9.0186 C.ar    1  UNL1        0.1387
     25 C          61.0348   88.3367    9.3681 C.ar    1  UNL1        0.0366
     26 C          60.2657   89.3464    8.5687 C.ar    1  UNL1       -0.0007
     27 C          59.4107   88.9000    7.4199 C.ar    1  UNL1       -0.0127
     28 C          59.3248   87.4437    7.0704 C.ar    1  UNL1       -0.0007
     29 C          60.0938   86.4340    7.8698 C.ar    1  UNL1        0.0366
     30 C          61.7458   85.9629   11.3149 C.3     1  UNL1        0.2525
     31 O          61.7178   85.8707    9.8180 O.3     1  UNL1       -0.4714
@<TRIPOS>BOND
     1    30    31    1
     2    31    24    1
     3    24    25   ar
     4    25    26   ar
     5    26    27   ar
     6    27    23    1
     7    23     1    1
     8     1     2   ar
     9     2     3   ar
    10     3     4   ar
    11     4     5   ar
    12     4     6    1
    13     6     7    1
    14     7     8    1
    15     8     9   ar
    16     9    10   ar
    17    10    16    1
    18    16    17   ar
    19    17    18   ar
    20    18    19   ar
    21    19    20   ar
    22    20    21    1
    23    20    22   ar
    24    10    11   ar
    25    11    12   ar
    26    12    13   ar
    27    13    14    1
    28    14    15    2
    29    27    28   ar
    30    28    29   ar
    31    29    24   ar
    32     5     1   ar
    33    13     8   ar
    34    14     3    1
    35    22    16   ar
@<TRIPOS>MOLECULE
*****
 31 35 0 0 0
SMALL
GASTEIGER

@<TRIPOS>ATOM
      1 C          64.6779   91.3110   13.3945 C.ar    1  UNL1        0.2098
      2 N          63.9400   90.5297   12.3480 N.ar    1  UNL1       -0.2089
      3 C          63.8839   89.0981   12.7920 C.ar    1  UNL1        0.1530
      4 C          64.5871   88.9946   14.1130 C.ar    1  UNL1        0.1453
      5 O          65.0778   90.3622   14.4853 O.2     1  UNL1       -0.4422
      6 C          64.8008   87.7794   14.9661 C.3     1  UNL1        0.0710
      7 C          64.3641   86.3676   14.7089 C.3     1  UNL1        0.0345
      8 C          63.6058   85.8223   13.5352 C.ar    1  UNL1       -0.0186
      9 C          63.3717   84.3470   13.6716 C.ar    1  UNL1       -0.0042
     10 C          62.6287   83.6034   12.6015 C.ar    1  UNL1       -0.0002
     11 C          62.1199   84.3352   11.3950 C.ar    1  UNL1        0.0001
     12 C          62.3540   85.8105   11.2586 C.ar    1  UNL1        0.0029
     13 C          63.0969   86.5540   12.3287 C.ar    1  UNL1        0.0366
     14 C          63.2207   88.0119   11.9980 C.2     1  UNL1        0.2155
     15 O          62.5991   88.4403   10.7018 O.2     1  UNL1       -0.2849
     16 C          62.3946   82.1281   12.7378 C.ar    1  UNL1        0.0027
     17 C          61.7965   81.5769   13.9982 C.ar    1  UNL1        0.0207
     18 C          61.5623   80.1016   14.1346 C.ar    1  UNL1        0.0984
     19 N          61.9263   79.1774   13.0105 N.ar    1  UNL1       -0.2481
     20 C          62.5244   79.7285   11.7502 C.ar    1  UNL1        0.0594
     21 C          62.8884   78.8044   10.6262 C.3     1  UNL1        0.0521
     22 C          62.7585   81.2039   11.6138 C.ar    1  UNL1        0.0147
     23 C          64.9653   92.7827   13.3566 C.3     1  UNL1        0.1116
     24 C          67.1856   94.5529    9.8656 C.ar    1  UNL1        0.1387
     25 C          66.5201   95.4520   10.8651 C.ar    1  UNL1        0.0366
     26 C          65.7801   94.8619   12.0287 C.ar    1  UNL1       -0.0007
     27 C          65.7054   93.3728   12.1930 C.ar    1  UNL1       -0.0127
     28 C          66.3708   92.4737   11.1935 C.ar    1  UNL1       -0.0007
     29 C          67.1109   93.0637   10.0299 C.ar    1  UNL1        0.0366
     30 C          67.5691   96.5117    8.2025 C.3     1  UNL1        0.2525
     31 O          67.9256   95.1429    8.7020 O.3     1  UNL1       -0.4714
@<TRIPOS>BOND
     1    30    31    1
     2    31    24    1
     3    24    25   ar
     4    25    26   ar
     5    26    27   ar
     6    27    23    1
     7    23     1    1
     8     1     2   ar
     9     2     3   ar
    10     3     4   ar
    11     4     5   ar
    12     4     6    1
    13     6     7    1
    14     7     8    1
    15     8     9   ar
    16     9    10   ar
    17    10    16    1
    18    16    17   ar
    19    17    18   ar
    20    18    19   ar
    21    19    20   ar
    22    20    21    1
    23    20    22   ar
    24    10    11   ar
    25    11    12   ar
    26    12    13   ar
    27    13    14    1
    28    14    15    2
    29    27    28   ar
    30    28    29   ar
    31    29    24   ar
    32     5     1   ar
    33    13     8   ar
    34    14     3    1
    35    22    16   ar
@<TRIPOS>MOLECULE
*****
 31 35 0 0 0
SMALL
GASTEIGER

@<TRIPOS>ATOM
      1 C          64.5920   91.2400   13.0586 C.ar    1  UNL1        0.2098
      2 N          64.9307   90.1766   14.0609 N.ar    1  UNL1       -0.2089
      3 C          64.2821   88.8987   13.6180 C.ar    1  UNL1        0.1530
      4 C          63.5426   89.1723   12.3419 C.ar    1  UNL1        0.1453
      5 O          63.7341   90.6192   11.9962 O.2     1  UNL1       -0.4422
      6 C          62.7361   88.2228   11.5063 C.3     1  UNL1        0.0710
      7 C          62.4701   86.7653   11.7405 C.3     1  UNL1        0.0345
      8 C          62.9447   85.8972   12.8679 C.ar    1  UNL1       -0.0186
      9 C          62.4489   84.4891   12.7216 C.ar    1  UNL1       -0.0042
     10 C          62.8111   83.4561   13.7471 C.ar    1  UNL1       -0.0002
     11 C          63.6690   83.8312   14.9189 C.ar    1  UNL1        0.0001
     12 C          64.1648   85.2393   15.0653 C.ar    1  UNL1        0.0029
     13 C          63.8026   86.2723   14.0398 C.ar    1  UNL1        0.0366
     14 C          64.3978   87.6081   14.3736 C.2     1  UNL1        0.2155
     15 O          65.2170   87.6602   15.6290 O.2     1  UNL1       -0.2849
     16 C          62.3154   82.0479   13.6007 C.ar    1  UNL1        0.0027
     17 C          63.1737   81.0165   12.9304 C.ar    1  UNL1        0.0207
     18 C          62.6781   79.6084   12.7841 C.ar    1  UNL1        0.0984
     19 N          61.3239   79.2316   13.3081 N.ar    1  UNL1       -0.2481
     20 C          60.4656   80.2631   13.9784 C.ar    1  UNL1        0.0594
     21 C          59.1115   79.8864   14.5024 C.3     1  UNL1        0.0521
     22 C          60.9613   81.6712   14.1247 C.ar    1  UNL1        0.0147
     23 C          65.0338   92.6726   13.1098 C.3     1  UNL1        0.1116
     24 C          67.2214   94.4790    9.6168 C.ar    1  UNL1        0.1387
     25 C          67.1797   92.9892    9.7864 C.ar    1  UNL1        0.0366
     26 C          66.4504   92.3871   10.9508 C.ar    1  UNL1       -0.0007
     27 C          65.7630   93.2747   11.9455 C.ar    1  UNL1       -0.0127
     28 C          65.8047   94.7645   11.7759 C.ar    1  UNL1       -0.0007
     29 C          66.5340   95.3667   10.6116 C.ar    1  UNL1        0.0366
     30 C          67.6072   96.4651    7.9869 C.3     1  UNL1        0.2525
     31 O          67.9506   95.0812    8.4525 O.3     1  UNL1       -0.4714
@<TRIPOS>BOND
     1    30    31    1
     2    31    24    1
     3    24    25   ar
     4    25    26   ar
     5    26    27   ar
     6    27    23    1
     7    23     1    1
     8     1     2   ar
     9     2     3   ar
    10     3     4   ar
    11     4     5   ar
    12     4     6    1
    13     6     7    1
    14     7     8    1
    15     8     9   ar
    16     9    10   ar
    17    10    16    1
    18    16    17   ar
    19    17    18   ar
    20    18    19   ar
    21    19    20   ar
    22    20    21    1
    23    20    22   ar
    24    10    11   ar
    25    11    12   ar
    26    12    13   ar
    27    13    14    1
    28    14    15    2
    29    27    28   ar
    30    28    29   ar
    31    29    24   ar
    32     5     1   ar
    33    13     8   ar
    34    14     3    1
    35    22    16   ar
@<TRIPOS>MOLECULE
*****
 31 35 0 0 0
SMALL
GASTEIGER

@<TRIPOS>ATOM
      1 C          59.2279   90.0410    6.5660 C.ar    1  UNL1        0.2098
      2 N          59.7342   88.6342    6.4464 N.ar    1  UNL1       -0.2089
      3 C          60.2179   88.1991    7.7980 C.ar    1  UNL1        0.1530
      4 C          60.0105   89.3372    8.7529 C.ar    1  UNL1        0.1453
      5 O          59.3986   90.4755    7.9915 O.2     1  UNL1       -0.4422
      6 C          60.3314   89.4001   10.2168 C.3     1  UNL1        0.0710
      7 C          60.9391   88.3405   11.0873 C.3     1  UNL1        0.0345
      8 C          61.3760   86.9562   10.7091 C.ar    1  UNL1       -0.0186
      9 C          61.9348   86.2165   11.8882 C.ar    1  UNL1       -0.0042
     10 C          62.4306   84.8103   11.7250 C.ar    1  UNL1       -0.0002
     11 C          62.3677   84.1438   10.3827 C.ar    1  UNL1        0.0001
     12 C          61.8088   84.8835    9.2036 C.ar    1  UNL1        0.0029
     13 C          61.3130   86.2897    9.3667 C.ar    1  UNL1        0.0366
     14 C          60.7976   86.8429    8.0712 C.2     1  UNL1        0.2155
     15 O          60.8717   85.9175    6.8931 O.2     1  UNL1       -0.2849
     16 C          62.9895   84.0704   12.9042 C.ar    1  UNL1        0.0027
     17 C          63.6219   84.8281   14.0339 C.ar    1  UNL1        0.0207
     18 C          64.1808   84.0883   15.2130 C.ar    1  UNL1        0.0984
     19 N          64.1073   82.5909   15.2625 N.ar    1  UNL1       -0.2481
     20 C          63.4749   81.8333   14.1329 C.ar    1  UNL1        0.0594
     21 C          63.4014   80.3359   14.1824 C.3     1  UNL1        0.0521
     22 C          62.9160   82.5731   12.9537 C.ar    1  UNL1        0.0147
     23 C          58.6519   90.8681    5.4550 C.3     1  UNL1        0.1116
     24 C          61.3795   92.8111    2.4492 C.ar    1  UNL1        0.1387
     25 C          59.9067   93.0942    2.4186 C.ar    1  UNL1        0.0366
     26 C          58.9976   92.4465    3.4205 C.ar    1  UNL1       -0.0007
     27 C          59.5611   91.5158    4.4531 C.ar    1  UNL1       -0.0127
     28 C          61.0339   91.2327    4.4837 C.ar    1  UNL1       -0.0007
     29 C          61.9430   91.8804    3.4818 C.ar    1  UNL1        0.0366
     30 C          63.7645   93.1942    1.4926 C.3     1  UNL1        0.2525
     31 O          62.2887   93.4588    1.4473 O.3     1  UNL1       -0.4714
@<TRIPOS>BOND
     1    30    31    1
     2    31    24    1
     3    24    25   ar
     4    25    26   ar
     5    26    27   ar
     6    27    23    1
     7    23     1    1
     8     1     2   ar
     9     2     3   ar
    10     3     4   ar
    11     4     5   ar
    12     4     6    1
    13     6     7    1
    14     7     8    1
    15     8     9   ar
    16     9    10   ar
    17    10    16    1
    18    16    17   ar
    19    17    18   ar
    20    18    19   ar
    21    19    20   ar
    22    20    21    1
    23    20    22   ar
    24    10    11   ar
    25    11    12   ar
    26    12    13   ar
    27    13    14    1
    28    14    15    2
    29    27    28   ar
    30    28    29   ar
    31    29    24   ar
    32     5     1   ar
    33    13     8   ar
    34    14     3    1
    35    22    16   ar
@<TRIPOS>MOLECULE
*****
 31 35 0 0 0
SMALL
GASTEIGER

@<TRIPOS>ATOM
      1 C          63.1302   85.8130   14.8313 C.ar    1  UNL1        0.2098
      2 N          62.8304   86.4361   13.5001 N.ar    1  UNL1       -0.2089
      3 C          63.4928   87.7812   13.4581 C.ar    1  UNL1        0.1530
      4 C          64.2021   87.9895   14.7634 C.ar    1  UNL1        0.1453
      5 O          63.9779   86.7732   15.6120 O.2     1  UNL1       -0.4422
      6 C          65.0087   89.1723   15.2112 C.3     1  UNL1        0.0710
      7 C          65.3052   90.4388   14.4643 C.3     1  UNL1        0.0345
      8 C          64.8685   90.8355   13.0852 C.ar    1  UNL1       -0.0186
      9 C          65.3863   92.1940   12.7159 C.ar    1  UNL1       -0.0042
     10 C          65.0629   92.7805   11.3737 C.ar    1  UNL1       -0.0002
     11 C          64.2218   92.0085   10.4009 C.ar    1  UNL1        0.0001
     12 C          63.7039   90.6500   10.7702 C.ar    1  UNL1        0.0029
     13 C          64.0273   90.0635   12.1123 C.ar    1  UNL1        0.0366
     14 C          63.4151   88.7042   12.2784 C.2     1  UNL1        0.2155
     15 O          62.6200   88.2015   11.1100 O.2     1  UNL1       -0.2849
     16 C          65.5808   94.1390   11.0044 C.ar    1  UNL1        0.0027
     17 C          65.8714   95.1476   12.0759 C.ar    1  UNL1        0.0207
     18 C          66.3891   96.5061   11.7066 C.ar    1  UNL1        0.0984
     19 N          66.6163   96.8560   10.2658 N.ar    1  UNL1       -0.2481
     20 C          66.3257   95.8473    9.1942 C.ar    1  UNL1        0.0594
     21 C          66.5529   96.1972    7.7534 C.3     1  UNL1        0.0521
     22 C          65.8079   94.4888    9.5636 C.ar    1  UNL1        0.0147
     23 C          62.6641   84.4663   15.2993 C.3     1  UNL1        0.1116
     24 C          62.7271   80.9586   12.4812 C.ar    1  UNL1        0.1387
     25 C          63.7101   82.0782   12.3072 C.ar    1  UNL1        0.0366
     26 C          63.6890   83.2474   13.2466 C.ar    1  UNL1       -0.0007
     27 C          62.6851   83.2971   14.3600 C.ar    1  UNL1       -0.0127
     28 C          61.7021   82.1775   14.5340 C.ar    1  UNL1       -0.0007
     29 C          61.7231   81.0083   13.5946 C.ar    1  UNL1        0.0366
     30 C          63.0307   80.0033   10.0843 C.3     1  UNL1        0.2525
     31 O          62.7481   79.7894   11.5418 O.3     1  UNL1       -0.4714
@<TRIPOS>BOND
     1    30    31    1
     2    31    24    1
     3    24    25   ar
     4    25    26   ar
     5    26    27   ar
     6    27    23    1
     7    23     1    1
     8     1     2   ar
     9     2     3   ar
    10     3     4   ar
    11     4     5   ar
    12     4     6    1
    13     6     7    1
    14     7     8    1
    15     8     9   ar
    16     9    10   ar
    17    10    16    1
    18    16    17   ar
    19    17    18   ar
    20    18    19   ar
    21    19    20   ar
    22    20    21    1
    23    20    22   ar
    24    10    11   ar
    25    11    12   ar
    26    12    13   ar
    27    13    14    1
    28    14    15    2
    29    27    28   ar
    30    28    29   ar
    31    29    24   ar
    32     5     1   ar
    33    13     8   ar
    34    14     3    1
    35    22    16   ar
@<TRIPOS>MOLECULE
*****
 31 35 0 0 0
SMALL
GASTEIGER

@<TRIPOS>ATOM
      1 C          62.7055   85.7257   13.8597 C.ar    1  UNL1        0.2098
      2 N          63.5770   86.7461   14.5298 N.ar    1  UNL1       -0.2089
      3 C          63.7227   87.9139   13.5998 C.ar    1  UNL1        0.1530
      4 C          62.9411   87.6152   12.3548 C.ar    1  UNL1        0.1453
      5 O          62.3125   86.2628   12.5154 O.2     1  UNL1       -0.4422
      6 C          62.7721   88.4648   11.1302 C.3     1  UNL1        0.0710
      7 C          63.3429   89.8230   10.8482 C.3     1  UNL1        0.0345
      8 C          64.2237   90.6670   11.7210 C.ar    1  UNL1       -0.0186
      9 C          64.5712   91.9659   11.0561 C.ar    1  UNL1       -0.0042
     10 C          65.4463   92.9590   11.7617 C.ar    1  UNL1       -0.0002
     11 C          65.9738   92.6533   13.1322 C.ar    1  UNL1        0.0001
     12 C          65.6263   91.3544   13.7971 C.ar    1  UNL1        0.0029
     13 C          64.7513   90.3613   13.0915 C.ar    1  UNL1        0.0366
     14 C          64.5283   89.1360   13.9276 C.2     1  UNL1        0.2155
     15 O          65.1997   89.1324   15.2689 O.2     1  UNL1       -0.2849
     16 C          65.7938   94.2580   11.0968 C.ar    1  UNL1        0.0027
     17 C          65.8169   95.5270   11.8961 C.ar    1  UNL1        0.0207
     18 C          66.1645   96.8259   11.2313 C.ar    1  UNL1        0.0984
     19 N          66.4889   96.8558    9.7671 N.ar    1  UNL1       -0.2481
     20 C          66.4659   95.5867    8.9678 C.ar    1  UNL1        0.0594
     21 C          66.7903   95.6166    7.5036 C.3     1  UNL1        0.0521
     22 C          66.1183   94.2878    9.6327 C.ar    1  UNL1        0.0147
     23 C          62.2984   84.4008   14.4332 C.3     1  UNL1        0.1116
     24 C          62.7520   80.6534   11.9835 C.ar    1  UNL1        0.1387
     25 C          63.2385   81.9657   11.4438 C.ar    1  UNL1        0.0366
     26 C          63.0872   83.2147   12.2604 C.ar    1  UNL1       -0.0007
     27 C          62.4496   83.1516   13.6167 C.ar    1  UNL1       -0.0127
     28 C          61.9632   81.8393   14.1564 C.ar    1  UNL1       -0.0007
     29 C          62.1144   80.5902   13.3399 C.ar    1  UNL1        0.0366
     30 C          62.7714   79.4636    9.6739 C.3     1  UNL1        0.2525
     31 O          62.9032   79.4042   11.1670 O.3     1  UNL1       -0.4714
@<TRIPOS>BOND
     1    30    31    1
     2    31    24    1
     3    24    25   ar
     4    25    26   ar
     5    26    27   ar
     6    27    23    1
     7    23     1    1
     8     1     2   ar
     9     2     3   ar
    10     3     4   ar
    11     4     5   ar
    12     4     6    1
    13     6     7    1
    14     7     8    1
    15     8     9   ar
    16     9    10   ar
    17    10    16    1
    18    16    17   ar
    19    17    18   ar
    20    18    19   ar
    21    19    20   ar
    22    20    21    1
    23    20    22   ar
    24    10    11   ar
    25    11    12   ar
    26    12    13   ar
    27    13    14    1
    28    14    15    2
    29    27    28   ar
    30    28    29   ar
    31    29    24   ar
    32     5     1   ar
    33    13     8   ar
    34    14     3    1
    35    22    16   ar
@<TRIPOS>MOLECULE
*****
 31 35 0 0 0
SMALL
GASTEIGER

@<TRIPOS>ATOM
      1 C          63.8931   90.5002   13.1022 C.ar    1  UNL1        0.2098
      2 N          64.3738   89.3763   13.9716 N.ar    1  UNL1       -0.2089
      3 C          63.9057   88.0873   13.3641 C.ar    1  UNL1        0.1530
      4 C          63.1356   88.4145   12.1190 C.ar    1  UNL1        0.1453
      5 O          63.1278   89.9057   11.9572 O.2     1  UNL1       -0.4422
      6 C          62.4662   87.4757   11.1595 C.3     1  UNL1        0.0710
      7 C          62.4016   85.9779   11.2081 C.3     1  UNL1        0.0345
      8 C          62.9904   85.0489   12.2281 C.ar    1  UNL1       -0.0186
      9 C          62.6915   83.6158   11.9013 C.ar    1  UNL1       -0.0042
     10 C          63.1914   82.5221   12.7979 C.ar    1  UNL1       -0.0002
     11 C          63.9902   82.8615   14.0212 C.ar    1  UNL1        0.0001
     12 C          64.2891   84.2946   14.3480 C.ar    1  UNL1        0.0029
     13 C          63.7892   85.3883   13.4514 C.ar    1  UNL1        0.0366
     14 C          64.1965   86.7405   13.9570 C.2     1  UNL1        0.2155
     15 O          65.0012   86.7468   15.2229 O.2     1  UNL1       -0.2849
     16 C          62.8924   81.0889   12.4711 C.ar    1  UNL1        0.0027
     17 C          62.4342   80.1534   13.5504 C.ar    1  UNL1        0.0207
     18 C          62.1353   78.7203   13.2237 C.ar    1  UNL1        0.0984
     19 N          62.2946   78.2226   11.8176 N.ar    1  UNL1       -0.2481
     20 C          62.7528   79.1581   10.7383 C.ar    1  UNL1        0.0594
     21 C          62.9122   78.6604    9.3323 C.3     1  UNL1        0.0521
     22 C          63.0518   80.5913   11.0651 C.ar    1  UNL1        0.0147
     23 C          64.1352   91.9618   13.3367 C.3     1  UNL1        0.1116
     24 C          66.9017   94.2483   10.6222 C.ar    1  UNL1        0.1387
     25 C          65.9954   93.1960   10.0554 C.ar    1  UNL1        0.0366
     26 C          65.0732   92.4339   10.9603 C.ar    1  UNL1       -0.0007
     27 C          65.0574   92.7240   12.4319 C.ar    1  UNL1       -0.0127
     28 C          65.9637   93.7763   12.9987 C.ar    1  UNL1       -0.0007
     29 C          66.8858   94.5385   12.0939 C.ar    1  UNL1        0.0366
     30 C          67.2858   96.1132    8.8545 C.3     1  UNL1        0.2525
     31 O          67.8239   95.0105    9.7174 O.3     1  UNL1       -0.4714
@<TRIPOS>BOND
     1    30    31    1
     2    31    24    1
     3    24    25   ar
     4    25    26   ar
     5    26    27   ar
     6    27    23    1
     7    23     1    1
     8     1     2   ar
     9     2     3   ar
    10     3     4   ar
    11     4     5   ar
    12     4     6    1
    13     6     7    1
    14     7     8    1
    15     8     9   ar
    16     9    10   ar
    17    10    16    1
    18    16    17   ar
    19    17    18   ar
    20    18    19   ar
    21    19    20   ar
    22    20    21    1
    23    20    22   ar
    24    10    11   ar
    25    11    12   ar
    26    12    13   ar
    27    13    14    1
    28    14    15    2
    29    27    28   ar
    30    28    29   ar
    31    29    24   ar
    32     5     1   ar
    33    13     8   ar
    34    14     3    1
    35    22    16   ar
@<TRIPOS>MOLECULE
*****
 31 35 0 0 0
SMALL
GASTEIGER

@<TRIPOS>ATOM
      1 C          62.6576   84.7939   14.0466 C.ar    1  UNL1        0.2098
      2 N          62.3920   85.6321   12.8314 N.ar    1  UNL1       -0.2089
      3 C          63.0813   86.9511   13.0182 C.ar    1  UNL1        0.1530
      4 C          63.7731   86.9281   14.3490 C.ar    1  UNL1        0.1453
      5 O          63.5113   85.5950   14.9846 O.2     1  UNL1       -0.4422
      6 C          64.5954   88.0040   14.9944 C.3     1  UNL1        0.0710
      7 C          64.9290   89.3685   14.4682 C.3     1  UNL1        0.0345
      8 C          64.5228   89.9942   13.1669 C.ar    1  UNL1       -0.0186
      9 C          65.0732   91.3830   13.0312 C.ar    1  UNL1       -0.0042
     10 C          64.7833   92.1874   11.7988 C.ar    1  UNL1       -0.0002
     11 C          63.9431   91.6031   10.7021 C.ar    1  UNL1        0.0001
     12 C          63.3927   90.2144   10.8379 C.ar    1  UNL1        0.0029
     13 C          63.6825   89.4100   12.0703 C.ar    1  UNL1        0.0366
     14 C          63.0411   88.0557   12.0041 C.2     1  UNL1        0.2155
     15 O          62.2554   87.7678   10.7592 O.2     1  UNL1       -0.2849
     16 C          65.3338   93.5762   11.6630 C.ar    1  UNL1        0.0027
     17 C          66.0312   94.2232   12.8227 C.ar    1  UNL1        0.0207
     18 C          66.5816   95.6120   12.6870 C.ar    1  UNL1        0.0984
     19 N          66.4346   96.3537   11.3915 N.ar    1  UNL1       -0.2481
     20 C          65.7372   95.7067   10.2318 C.ar    1  UNL1        0.0594
     21 C          65.5902   96.4484    8.9363 C.3     1  UNL1        0.0521
     22 C          65.1868   94.3179   10.3675 C.ar    1  UNL1        0.0147
     23 C          62.1575   83.3996   14.2824 C.3     1  UNL1        0.1116
     24 C          62.8674   80.2024   11.1963 C.ar    1  UNL1        0.1387
     25 C          63.0721   81.6455   10.8419 C.ar    1  UNL1        0.0366
     26 C          62.8354   82.7112   11.8707 C.ar    1  UNL1       -0.0007
     27 C          62.3941   82.3338   13.2537 C.ar    1  UNL1       -0.0127
     28 C          62.1894   80.8907   13.6081 C.ar    1  UNL1       -0.0007
     29 C          62.4260   79.8250   12.5794 C.ar    1  UNL1        0.0366
     30 C          62.7343   77.7133   10.4635 C.3     1  UNL1        0.2525
     31 O          63.1040   79.1367   10.1676 O.3     1  UNL1       -0.4714
@<TRIPOS>BOND
     1    30    31    1
     2    31    24    1
     3    24    25   ar
     4    25    26   ar
     5    26    27   ar
     6    27    23    1
     7    23     1    1
     8     1     2   ar
     9     2     3   ar
    10     3     4   ar
    11     4     5   ar
    12     4     6    1
    13     6     7    1
    14     7     8    1
    15     8     9   ar
    16     9    10   ar
    17    10    16    1
    18    16    17   ar
    19    17    18   ar
    20    18    19   ar
    21    19    20   ar
    22    20    21    1
    23    20    22   ar
    24    10    11   ar
    25    11    12   ar
    26    12    13   ar
    27    13    14    1
    28    14    15    2
    29    27    28   ar
    30    28    29   ar
    31    29    24   ar
    32     5     1   ar
    33    13     8   ar
    34    14     3    1
    35    22    16   ar
