@<TRIPOS>MOLECULE
*****
 32 34 0 0 0
SMALL
GASTEIGER

@<TRIPOS>ATOM
      1 C          61.3167   86.5111    8.6499 C.ar    1  UNL1        0.1725
      2 C          62.2743   85.5537    8.0047 C.ar    1  UNL1        0.0413
      3 C          63.0178   84.5569    8.8435 C.ar    1  UNL1        0.0182
      4 C          62.8036   84.5175   10.3276 C.ar    1  UNL1        0.0560
      5 C          61.8459   85.4749   10.9728 C.ar    1  UNL1        0.0549
      6 C          61.1024   86.4717   10.1340 C.ar    1  UNL1        0.1740
      7 C          59.1146   87.3072    7.5242 C.3     1  UNL1        0.2526
      8 O          60.5732   87.5078    7.8110 O.3     1  UNL1       -0.4684
      9 N          63.5470   83.5207   11.1665 N.pl3   1  UNL1       -0.2705
     10 C          64.8232   82.9172   10.6595 C.3     1  UNL1        0.1187
     11 C          63.0142   83.1275   12.5124 C.ar    1  UNL1        0.1382
     12 N          62.1999   81.8766   12.6604 N.ar    1  UNL1       -0.2157
     13 C          61.6671   81.4834   14.0064 C.ar    1  UNL1        0.1409
     14 C          60.8526   80.2324   14.1543 C.3     1  UNL1        0.0737
     15 N          61.9487   82.3410   15.2043 N.ar    1  UNL1       -0.2306
     16 C          62.7631   83.5920   15.0563 C.ar    1  UNL1        0.0853
     17 C          63.0447   84.4497   16.2542 C.ar    1  UNL1        0.0192
     18 C          63.8591   85.7006   16.1062 C.ar    1  UNL1        0.0015
     19 C          64.3919   86.0939   14.7603 C.ar    1  UNL1        0.0002
     20 C          64.1103   85.2362   13.5624 C.ar    1  UNL1        0.0043
     21 C          63.2959   83.9853   13.7104 C.ar    1  UNL1        0.0496
     22 O          60.1448   87.4290   10.7792 O.3     1  UNL1       -0.4668
     23 C          60.6345   88.7539   11.2839 C.3     1  UNL1        0.2430
     24 C          59.6709   89.7249   11.8993 C.2     1  UNL1        0.2845
     25 O          58.9905   89.3883   13.1930 O.2     1  UNL1       -0.2691
     26 N          59.3876   91.0324   11.2209 N.am    1  UNL1       -0.1940
     27 O          58.4240   92.0034   11.8363 O.3     1  UNL1       -0.2951
     28 H          59.8342   91.2533   10.3718 H       1  UNL1        0.1823
     29 H          58.0764   91.6339   12.6631 H       1  UNL1        0.2414
     30 C          62.0880   89.1079   11.1732 C.3     1  UNL1        0.0493
     31 C          63.0387   88.7248   12.2685 C.3     1  UNL1        0.0042
     32 C          62.5907   89.8449    9.9674 C.3     1  UNL1        0.0042
@<TRIPOS>BOND
     1     7     8    1
     2     8     1    1
     3     1     2   ar
     4     2     3   ar
     5     3     4   ar
     6     4     9    1
     7     9    10    1
     8     9    11    1
     9    11    12   ar
    10    12    13   ar
    11    13    14    1
    12    13    15   ar
    13    15    16   ar
    14    16    17   ar
    15    17    18   ar
    16    18    19   ar
    17    19    20   ar
    18    20    21   ar
    19     4     5   ar
    20     5     6   ar
    21     6    22    1
    22    22    23    1
    23    23    24    1
    24    24    25    2
    25    24    26   am
    26    26    27    1
    27    23    30    1
    28    30    31    1
    29    30    32    1
    30     6     1   ar
    31    21    11   ar
    32    21    16   ar
    33    26    28    1
    34    27    29    1
@<TRIPOS>MOLECULE
*****
 32 34 0 0 0
SMALL
GASTEIGER

@<TRIPOS>ATOM
      1 C          65.0613   91.9536   11.5727 C.ar    1  UNL1        0.1725
      2 C          64.0779   92.0657   10.4456 C.ar    1  UNL1        0.0413
      3 C          62.8363   91.2242   10.4473 C.ar    1  UNL1        0.0182
      4 C          62.5780   90.2706   11.5760 C.ar    1  UNL1        0.0560
      5 C          63.5614   90.1586   12.7031 C.ar    1  UNL1        0.0549
      6 C          64.8031   91.0001   12.7014 C.ar    1  UNL1        0.1740
      7 C          67.2546   92.7258   10.4136 C.3     1  UNL1        0.2526
      8 O          66.3031   92.7952   11.5711 O.3     1  UNL1       -0.4684
      9 N          61.3363   89.4290   11.5776 N.pl3   1  UNL1       -0.2705
     10 C          60.0584   89.9787   12.1388 C.3     1  UNL1        0.1187
     11 C          61.3724   88.0378   11.0181 C.ar    1  UNL1        0.1382
     12 N          62.0581   86.9413   11.7780 N.ar    1  UNL1       -0.2157
     13 C          62.0943   85.5501   11.2185 C.ar    1  UNL1        0.1409
     14 C          62.7801   84.4536   11.9786 C.3     1  UNL1        0.0737
     15 N          61.4448   85.2553    9.8990 N.ar    1  UNL1       -0.2306
     16 C          60.7591   86.3517    9.1389 C.ar    1  UNL1        0.0853
     17 C          60.1096   86.0569    7.8194 C.ar    1  UNL1        0.0192
     18 C          59.4239   87.1533    7.0594 C.ar    1  UNL1        0.0015
     19 C          59.3877   88.5446    7.6190 C.ar    1  UNL1        0.0002
     20 C          60.0372   88.8394    8.9385 C.ar    1  UNL1        0.0043
     21 C          60.7229   87.7430    9.6985 C.ar    1  UNL1        0.0496
     22 O          65.7865   90.8881   13.8285 O.3     1  UNL1       -0.4668
     23 C          65.7117   91.8387   14.9864 C.3     1  UNL1        0.2430
     24 C          64.6221   91.6931   16.0071 C.2     1  UNL1        0.2845
     25 O          64.4378   92.7432   17.0623 O.2     1  UNL1       -0.2691
     26 N          63.7169   90.4976   15.9726 N.am    1  UNL1       -0.1940
     27 O          62.6274   90.3521   16.9933 O.3     1  UNL1       -0.2951
     28 H          63.8379   89.8084   15.2801 H       1  UNL1        0.1823
     29 H          62.6463   91.1112   17.5969 H       1  UNL1        0.2414
     30 C          66.7264   92.9348   15.1237 C.3     1  UNL1        0.0493
     31 C          66.6706   94.1266   14.2146 C.3     1  UNL1        0.0042
     32 C          67.7969   92.8391   16.1701 C.3     1  UNL1        0.0042
@<TRIPOS>BOND
     1     7     8    1
     2     8     1    1
     3     1     2   ar
     4     2     3   ar
     5     3     4   ar
     6     4     9    1
     7     9    10    1
     8     9    11    1
     9    11    12   ar
    10    12    13   ar
    11    13    14    1
    12    13    15   ar
    13    15    16   ar
    14    16    17   ar
    15    17    18   ar
    16    18    19   ar
    17    19    20   ar
    18    20    21   ar
    19     4     5   ar
    20     5     6   ar
    21     6    22    1
    22    22    23    1
    23    23    24    1
    24    24    25    2
    25    24    26   am
    26    26    27    1
    27    23    30    1
    28    30    31    1
    29    30    32    1
    30     6     1   ar
    31    21    11   ar
    32    21    16   ar
    33    26    28    1
    34    27    29    1
@<TRIPOS>MOLECULE
*****
 32 34 0 0 0
SMALL
GASTEIGER

@<TRIPOS>ATOM
      1 C          66.2288   92.6500   14.6103 C.ar    1  UNL1        0.1725
      2 C          65.2324   91.7945   15.3351 C.ar    1  UNL1        0.0413
      3 C          64.2452   90.9729   14.5603 C.ar    1  UNL1        0.0182
      4 C          64.2543   91.0067   13.0608 C.ar    1  UNL1        0.0560
      5 C          65.2507   91.8622   12.3360 C.ar    1  UNL1        0.0549
      6 C          66.2380   92.6838   13.1107 C.ar    1  UNL1        0.1740
      7 C          68.6080   92.9589   15.6072 C.3     1  UNL1        0.2526
      8 O          67.2160   93.4716   15.3851 O.3     1  UNL1       -0.4684
      9 N          63.2671   90.1851   12.2859 N.pl3   1  UNL1       -0.2705
     10 C          62.3155   90.8530   11.3382 C.3     1  UNL1        0.1187
     11 C          63.2315   88.6955   12.4589 C.ar    1  UNL1        0.1382
     12 N          63.8806   88.0636   13.6544 N.ar    1  UNL1       -0.2157
     13 C          63.8451   86.5740   13.8274 C.ar    1  UNL1        0.1409
     14 C          64.4942   85.9421   15.0230 C.3     1  UNL1        0.0737
     15 N          63.1605   85.7163   12.8048 N.ar    1  UNL1       -0.2306
     16 C          62.5113   86.3483   11.6092 C.ar    1  UNL1        0.0853
     17 C          61.8267   85.4906   10.5866 C.ar    1  UNL1        0.0192
     18 C          61.1777   86.1226    9.3911 C.ar    1  UNL1        0.0015
     19 C          61.2132   87.6121    9.2181 C.ar    1  UNL1        0.0002
     20 C          61.8978   88.4698   10.2407 C.ar    1  UNL1        0.0043
     21 C          62.5469   87.8378   11.4362 C.ar    1  UNL1        0.0496
     22 O          67.2343   93.5393   12.3859 O.3     1  UNL1       -0.4668
     23 C          66.8448   94.2288   11.1121 C.3     1  UNL1        0.2430
     24 C          65.9550   95.4358   11.1543 C.2     1  UNL1        0.2845
     25 O          66.0915   96.4294   12.2697 O.2     1  UNL1       -0.2691
     26 N          64.9289   95.6490   10.0812 N.am    1  UNL1       -0.1940
     27 O          64.0392   96.8560   10.1235 O.3     1  UNL1       -0.2951
     28 H          64.8394   94.9968    9.3492 H       1  UNL1        0.1823
     29 H          64.2566   97.3909   10.9029 H       1  UNL1        0.2414
     30 C          67.3449   93.7115    9.7959 C.3     1  UNL1        0.0493
     31 C          67.7731   92.2796    9.6667 C.3     1  UNL1        0.0042
     32 C          67.4169   94.6258    8.6091 C.3     1  UNL1        0.0042
@<TRIPOS>BOND
     1     7     8    1
     2     8     1    1
     3     1     2   ar
     4     2     3   ar
     5     3     4   ar
     6     4     9    1
     7     9    10    1
     8     9    11    1
     9    11    12   ar
    10    12    13   ar
    11    13    14    1
    12    13    15   ar
    13    15    16   ar
    14    16    17   ar
    15    17    18   ar
    16    18    19   ar
    17    19    20   ar
    18    20    21   ar
    19     4     5   ar
    20     5     6   ar
    21     6    22    1
    22    22    23    1
    23    23    24    1
    24    24    25    2
    25    24    26   am
    26    26    27    1
    27    23    30    1
    28    30    31    1
    29    30    32    1
    30     6     1   ar
    31    21    11   ar
    32    21    16   ar
    33    26    28    1
    34    27    29    1
@<TRIPOS>MOLECULE
*****
 32 34 0 0 0
SMALL
GASTEIGER

@<TRIPOS>ATOM
      1 C          62.5287   85.0347   10.8290 C.ar    1  UNL1        0.1725
      2 C          61.6784   85.8925    9.9395 C.ar    1  UNL1        0.0413
      3 C          61.4869   87.3455   10.2590 C.ar    1  UNL1        0.0182
      4 C          62.1458   87.9407   11.4680 C.ar    1  UNL1        0.0560
      5 C          62.9961   87.0829   12.3574 C.ar    1  UNL1        0.0549
      6 C          63.1876   85.6299   12.0379 C.ar    1  UNL1        0.1740
      7 C          64.0530   83.0885   10.0298 C.3     1  UNL1        0.2526
      8 O          62.7201   83.5817   10.5095 O.3     1  UNL1       -0.4684
      9 N          61.9544   89.3938   11.7875 N.pl3   1  UNL1       -0.2705
     10 C          60.8922   90.1833   11.0816 C.3     1  UNL1        0.1187
     11 C          62.8252   90.0572   12.8130 C.ar    1  UNL1        0.1382
     12 N          62.6575   89.7265   14.2664 N.ar    1  UNL1       -0.2157
     13 C          63.5283   90.3899   15.2918 C.ar    1  UNL1        0.1409
     14 C          63.3606   90.0592   16.7453 C.3     1  UNL1        0.0737
     15 N          64.5668   91.3841   14.8639 N.ar    1  UNL1       -0.2306
     16 C          64.7345   91.7149   13.4104 C.ar    1  UNL1        0.0853
     17 C          65.7729   92.7091   12.9824 C.ar    1  UNL1        0.0192
     18 C          65.9405   93.0398   11.5290 C.ar    1  UNL1        0.0015
     19 C          65.0697   92.3764   10.5035 C.ar    1  UNL1        0.0002
     20 C          64.0313   91.3822   10.9315 C.ar    1  UNL1        0.0043
     21 C          63.8637   91.0515   12.3849 C.ar    1  UNL1        0.0496
     22 O          64.0379   84.7721   12.9274 O.3     1  UNL1       -0.4668
     23 C          63.4204   84.0558   14.0916 C.3     1  UNL1        0.2430
     24 C          63.1310   84.7992   15.3619 C.2     1  UNL1        0.2845
     25 O          64.2600   85.2537   16.2388 O.2     1  UNL1       -0.2691
     26 N          61.7127   85.0882   15.7553 N.am    1  UNL1       -0.1940
     27 O          61.4233   85.8316   17.0256 O.3     1  UNL1       -0.2951
     28 H          60.9717   84.7899   15.1798 H       1  UNL1        0.1823
     29 H          62.2575   86.0501   17.4696 H       1  UNL1        0.2414
     30 C          63.0923   82.5959   13.9857 C.3     1  UNL1        0.0493
     31 C          64.1002   81.6399   13.4196 C.3     1  UNL1        0.0042
     32 C          61.7565   82.0921   14.4457 C.3     1  UNL1        0.0042
@<TRIPOS>BOND
     1     7     8    1
     2     8     1    1
     3     1     2   ar
     4     2     3   ar
     5     3     4   ar
     6     4     9    1
     7     9    10    1
     8     9    11    1
     9    11    12   ar
    10    12    13   ar
    11    13    14    1
    12    13    15   ar
    13    15    16   ar
    14    16    17   ar
    15    17    18   ar
    16    18    19   ar
    17    19    20   ar
    18    20    21   ar
    19     4     5   ar
    20     5     6   ar
    21     6    22    1
    22    22    23    1
    23    23    24    1
    24    24    25    2
    25    24    26   am
    26    26    27    1
    27    23    30    1
    28    30    31    1
    29    30    32    1
    30     6     1   ar
    31    21    11   ar
    32    21    16   ar
    33    26    28    1
    34    27    29    1
@<TRIPOS>MOLECULE
*****
 32 34 0 0 0
SMALL
GASTEIGER

@<TRIPOS>ATOM
      1 C          65.5176   91.0674   14.1669 C.ar    1  UNL1        0.1725
      2 C          64.7653   89.7973   14.4331 C.ar    1  UNL1        0.0413
      3 C          63.6440   89.3855   13.5258 C.ar    1  UNL1        0.0182
      4 C          63.2751   90.2438   12.3523 C.ar    1  UNL1        0.0560
      5 C          64.0274   91.5139   12.0861 C.ar    1  UNL1        0.0549
      6 C          65.1486   91.9257   12.9933 C.ar    1  UNL1        0.1740
      7 C          66.4423   92.6044   16.0464 C.3     1  UNL1        0.2526
      8 O          66.6389   91.4792   15.0742 O.3     1  UNL1       -0.4684
      9 N          62.1538   89.8320   11.4450 N.pl3   1  UNL1       -0.2705
     10 C          61.2171   90.8657   10.8935 C.3     1  UNL1        0.1187
     11 C          61.9692   88.3866   11.0892 C.ar    1  UNL1        0.1382
     12 N          62.6151   87.3204   11.9235 N.ar    1  UNL1       -0.2157
     13 C          62.4306   85.8750   11.5677 C.ar    1  UNL1        0.1409
     14 C          63.0765   84.8088   12.4021 C.3     1  UNL1        0.0737
     15 N          61.6002   85.4957   10.3776 N.ar    1  UNL1       -0.2306
     16 C          60.9542   86.5618    9.5432 C.ar    1  UNL1        0.0853
     17 C          60.1238   86.1825    8.3530 C.ar    1  UNL1        0.0192
     18 C          59.4779   87.2486    7.5187 C.ar    1  UNL1        0.0015
     19 C          59.6624   88.6941    7.8745 C.ar    1  UNL1        0.0002
     20 C          60.4929   89.0734    9.0647 C.ar    1  UNL1        0.0043
     21 C          61.1387   88.0073    9.8990 C.ar    1  UNL1        0.0496
     22 O          65.9009   93.1958   12.7271 O.3     1  UNL1       -0.4668
     23 C          66.7073   93.3405   11.4707 C.3     1  UNL1        0.2430
     24 C          66.4856   94.5184   10.5686 C.2     1  UNL1        0.2845
     25 O          67.6594   95.2473    9.9847 O.2     1  UNL1       -0.2691
     26 N          65.0902   94.9672   10.2505 N.am    1  UNL1       -0.1940
     27 O          64.8685   96.1451    9.3484 O.3     1  UNL1       -0.2951
     28 H          64.3198   94.4888   10.6338 H       1  UNL1        0.1823
     29 H          65.7250   96.4975    9.0604 H       1  UNL1        0.2414
     30 C          67.7355   92.3075   11.1162 C.3     1  UNL1        0.0493
     31 C          68.5558   91.6647   12.1951 C.3     1  UNL1        0.0042
     32 C          67.9434   91.9172    9.6829 C.3     1  UNL1        0.0042
@<TRIPOS>BOND
     1     7     8    1
     2     8     1    1
     3     1     2   ar
     4     2     3   ar
     5     3     4   ar
     6     4     9    1
     7     9    10    1
     8     9    11    1
     9    11    12   ar
    10    12    13   ar
    11    13    14    1
    12    13    15   ar
    13    15    16   ar
    14    16    17   ar
    15    17    18   ar
    16    18    19   ar
    17    19    20   ar
    18    20    21   ar
    19     4     5   ar
    20     5     6   ar
    21     6    22    1
    22    22    23    1
    23    23    24    1
    24    24    25    2
    25    24    26   am
    26    26    27    1
    27    23    30    1
    28    30    31    1
    29    30    32    1
    30     6     1   ar
    31    21    11   ar
    32    21    16   ar
    33    26    28    1
    34    27    29    1
@<TRIPOS>MOLECULE
*****
 32 34 0 0 0
SMALL
GASTEIGER

@<TRIPOS>ATOM
      1 C          62.3584   85.9102    9.5276 C.ar    1  UNL1        0.1725
      2 C          62.5038   87.2505    8.8700 C.ar    1  UNL1        0.0413
      3 C          62.2390   88.5025    9.6524 C.ar    1  UNL1        0.0182
      4 C          61.8286   88.4143   11.0924 C.ar    1  UNL1        0.0560
      5 C          61.6832   87.0740   11.7501 C.ar    1  UNL1        0.0549
      6 C          61.9481   85.8219   10.9677 C.ar    1  UNL1        0.1740
      7 C          62.6723   84.7063    7.2468 C.3     1  UNL1        0.2526
      8 O          62.6233   84.6581    8.7452 O.3     1  UNL1       -0.4684
      9 N          61.5637   89.6663   11.8749 N.pl3   1  UNL1       -0.2705
     10 C          60.2866   90.4250   11.6664 C.3     1  UNL1        0.1187
     11 C          62.5759   90.1597   12.8658 C.ar    1  UNL1        0.1382
     12 N          62.4655   89.7672   14.3093 N.ar    1  UNL1       -0.2157
     13 C          63.4778   90.2606   15.3003 C.ar    1  UNL1        0.1409
     14 C          63.3673   89.8681   16.7438 C.3     1  UNL1        0.0737
     15 N          64.6004   91.1465   14.8477 N.ar    1  UNL1       -0.2306
     16 C          64.7109   91.5390   13.4041 C.ar    1  UNL1        0.0853
     17 C          65.8335   92.4249   12.9516 C.ar    1  UNL1        0.0192
     18 C          65.9439   92.8174   11.5081 C.ar    1  UNL1        0.0015
     19 C          64.9317   92.3240   10.5172 C.ar    1  UNL1        0.0002
     20 C          63.8091   91.4381   10.9697 C.ar    1  UNL1        0.0043
     21 C          63.6986   91.0457   12.4132 C.ar    1  UNL1        0.0496
     22 O          61.8027   84.4817   11.6253 O.3     1  UNL1       -0.4668
     23 C          63.0123   83.7722   12.1577 C.3     1  UNL1        0.2430
     24 C          63.7841   84.3607   13.3014 C.2     1  UNL1        0.2845
     25 O          63.0990   85.2663   14.2815 O.2     1  UNL1       -0.2691
     26 N          65.2410   84.0435   13.4652 N.am    1  UNL1       -0.1940
     27 O          66.0128   84.6319   14.6089 O.3     1  UNL1       -0.2951
     28 H          65.6907   83.4491   12.8219 H       1  UNL1        0.1823
     29 H          65.4252   85.1892   15.1428 H       1  UNL1        0.2414
     30 C          63.4502   82.4744   11.5463 C.3     1  UNL1        0.0493
     31 C          62.9810   81.1745   12.1296 C.3     1  UNL1        0.0042
     32 C          64.3573   82.4764   10.3517 C.3     1  UNL1        0.0042
@<TRIPOS>BOND
     1     7     8    1
     2     8     1    1
     3     1     2   ar
     4     2     3   ar
     5     3     4   ar
     6     4     9    1
     7     9    10    1
     8     9    11    1
     9    11    12   ar
    10    12    13   ar
    11    13    14    1
    12    13    15   ar
    13    15    16   ar
    14    16    17   ar
    15    17    18   ar
    16    18    19   ar
    17    19    20   ar
    18    20    21   ar
    19     4     5   ar
    20     5     6   ar
    21     6    22    1
    22    22    23    1
    23    23    24    1
    24    24    25    2
    25    24    26   am
    26    26    27    1
    27    23    30    1
    28    30    31    1
    29    30    32    1
    30     6     1   ar
    31    21    11   ar
    32    21    16   ar
    33    26    28    1
    34    27    29    1
@<TRIPOS>MOLECULE
*****
 32 34 0 0 0
SMALL
GASTEIGER

@<TRIPOS>ATOM
      1 C          60.8288   87.8982    9.4313 C.ar    1  UNL1        0.1725
      2 C          60.9799   86.6914    8.5532 C.ar    1  UNL1        0.0413
      3 C          61.8053   85.5270    9.0144 C.ar    1  UNL1        0.0182
      4 C          62.4796   85.5693   10.3536 C.ar    1  UNL1        0.0560
      5 C          62.3285   86.7760   11.2316 C.ar    1  UNL1        0.0549
      6 C          61.5031   87.9404   10.7705 C.ar    1  UNL1        0.1740
      7 C          59.5031   89.1145    7.5569 C.3     1  UNL1        0.2526
      8 O          60.0034   89.0627    8.9701 O.3     1  UNL1       -0.4684
      9 N          63.3051   84.4048   10.8148 N.pl3   1  UNL1       -0.2705
     10 C          64.1642   83.6601    9.8364 C.3     1  UNL1        0.1187
     11 C          63.2714   83.9850   12.2545 C.ar    1  UNL1        0.1382
     12 N          63.5026   84.9977   13.3366 N.ar    1  UNL1       -0.2157
     13 C          63.4689   84.5779   14.7763 C.ar    1  UNL1        0.1409
     14 C          63.7001   85.5907   15.8584 C.3     1  UNL1        0.0737
     15 N          63.2040   83.1455   15.1338 N.ar    1  UNL1       -0.2306
     16 C          62.9728   82.1327   14.0517 C.ar    1  UNL1        0.0853
     17 C          62.7079   80.7003   14.4092 C.ar    1  UNL1        0.0192
     18 C          62.4767   79.6876   13.3271 C.ar    1  UNL1        0.0015
     19 C          62.5104   80.1074   11.8875 C.ar    1  UNL1        0.0002
     20 C          62.7753   81.5398   11.5299 C.ar    1  UNL1        0.0043
     21 C          63.0065   82.5525   12.6120 C.ar    1  UNL1        0.0496
     22 O          61.3520   89.1472   11.6485 O.3     1  UNL1       -0.4668
     23 C          62.5628   89.7822   12.2654 C.3     1  UNL1        0.2430
     24 C          63.0160   89.3620   13.6322 C.2     1  UNL1        0.2845
     25 O          64.1087   88.3451   13.7804 O.2     1  UNL1       -0.2691
     26 N          62.3765   89.9587   14.8508 N.am    1  UNL1       -0.1940
     27 O          62.8296   89.5385   16.2176 O.3     1  UNL1       -0.2951
     28 H          61.6593   90.6261   14.7535 H       1  UNL1        0.1823
     29 H          63.5371   88.8799   16.1355 H       1  UNL1        0.2414
     30 C          63.3205   90.8375   11.5155 C.3     1  UNL1        0.0493
     31 C          64.4080   91.6102   12.2015 C.3     1  UNL1        0.0042
     32 C          62.9909   91.1200   10.0798 C.3     1  UNL1        0.0042
@<TRIPOS>BOND
     1     7     8    1
     2     8     1    1
     3     1     2   ar
     4     2     3   ar
     5     3     4   ar
     6     4     9    1
     7     9    10    1
     8     9    11    1
     9    11    12   ar
    10    12    13   ar
    11    13    14    1
    12    13    15   ar
    13    15    16   ar
    14    16    17   ar
    15    17    18   ar
    16    18    19   ar
    17    19    20   ar
    18    20    21   ar
    19     4     5   ar
    20     5     6   ar
    21     6    22    1
    22    22    23    1
    23    23    24    1
    24    24    25    2
    25    24    26   am
    26    26    27    1
    27    23    30    1
    28    30    31    1
    29    30    32    1
    30     6     1   ar
    31    21    11   ar
    32    21    16   ar
    33    26    28    1
    34    27    29    1
@<TRIPOS>MOLECULE
*****
 32 34 0 0 0
SMALL
GASTEIGER

@<TRIPOS>ATOM
      1 C          63.7850   91.5862   11.2571 C.ar    1  UNL1        0.1725
      2 C          63.5741   91.0118    9.8876 C.ar    1  UNL1        0.0413
      3 C          62.7540   89.7679    9.7141 C.ar    1  UNL1        0.0182
      4 C          62.1449   89.0983   10.9102 C.ar    1  UNL1        0.0560
      5 C          62.3559   89.6727   12.2797 C.ar    1  UNL1        0.0549
      6 C          63.1759   90.9166   12.4532 C.ar    1  UNL1        0.1740
      7 C          66.0755   92.8064   11.1348 C.3     1  UNL1        0.2526
      8 O          64.6052   92.8301   11.4305 O.3     1  UNL1       -0.4684
      9 N          61.3248   87.8544   10.7368 N.pl3   1  UNL1       -0.2705
     10 C          59.8808   87.8454   11.1426 C.3     1  UNL1        0.1187
     11 C          61.9488   86.6194   10.1576 C.ar    1  UNL1        0.1382
     12 N          61.8776   86.3650    8.6810 N.ar    1  UNL1       -0.2157
     13 C          62.5016   85.1300    8.1018 C.ar    1  UNL1        0.1409
     14 C          62.4304   84.8757    6.6252 C.3     1  UNL1        0.0737
     15 N          63.1967   84.1494    8.9991 N.ar    1  UNL1       -0.2306
     16 C          63.2679   84.4038   10.4757 C.ar    1  UNL1        0.0853
     17 C          63.9630   83.4232   11.3730 C.ar    1  UNL1        0.0192
     18 C          64.0341   83.6775   12.8495 C.ar    1  UNL1        0.0015
     19 C          63.4102   84.9125   13.4288 C.ar    1  UNL1        0.0002
     20 C          62.7151   85.8931   12.5315 C.ar    1  UNL1        0.0043
     21 C          62.6439   85.6387   11.0550 C.ar    1  UNL1        0.0496
     22 O          63.3869   91.4910   13.8227 O.3     1  UNL1       -0.4668
     23 C          64.3454   90.8349   14.7717 C.3     1  UNL1        0.2430
     24 C          65.6323   91.5177   15.1294 C.2     1  UNL1        0.2845
     25 O          66.9095   91.1109   14.4562 O.2     1  UNL1       -0.2691
     26 N          65.6419   92.6072   16.1603 N.am    1  UNL1       -0.1940
     27 O          66.9288   93.2899   16.5181 O.3     1  UNL1       -0.2951
     28 H          64.8036   92.8741   16.6022 H       1  UNL1        0.1823
     29 H          67.6523   92.9104   15.9953 H       1  UNL1        0.2414
     30 C          64.0172   89.4960   15.3630 C.3     1  UNL1        0.0493
     31 C          63.1739   89.4090   16.6005 C.3     1  UNL1        0.0042
     32 C          64.5322   88.2441   14.7169 C.3     1  UNL1        0.0042
@<TRIPOS>BOND
     1     7     8    1
     2     8     1    1
     3     1     2   ar
     4     2     3   ar
     5     3     4   ar
     6     4     9    1
     7     9    10    1
     8     9    11    1
     9    11    12   ar
    10    12    13   ar
    11    13    14    1
    12    13    15   ar
    13    15    16   ar
    14    16    17   ar
    15    17    18   ar
    16    18    19   ar
    17    19    20   ar
    18    20    21   ar
    19     4     5   ar
    20     5     6   ar
    21     6    22    1
    22    22    23    1
    23    23    24    1
    24    24    25    2
    25    24    26   am
    26    26    27    1
    27    23    30    1
    28    30    31    1
    29    30    32    1
    30     6     1   ar
    31    21    11   ar
    32    21    16   ar
    33    26    28    1
    34    27    29    1
@<TRIPOS>MOLECULE
*****
 32 34 0 0 0
SMALL
GASTEIGER

@<TRIPOS>ATOM
      1 C          61.2464   86.6029    8.6381 C.ar    1  UNL1        0.1725
      2 C          62.2936   85.7198    8.0269 C.ar    1  UNL1        0.0413
      3 C          63.0549   84.7542    8.8858 C.ar    1  UNL1        0.0182
      4 C          62.7691   84.6716   10.3560 C.ar    1  UNL1        0.0560
      5 C          61.7220   85.5547   10.9672 C.ar    1  UNL1        0.0549
      6 C          60.9606   86.5204   10.1083 C.ar    1  UNL1        0.1740
      7 C          59.0406   87.3149    7.4645 C.3     1  UNL1        0.2526
      8 O          60.4851   87.5686    7.7791 O.3     1  UNL1       -0.4684
      9 N          63.5305   83.7059   11.2150 N.pl3   1  UNL1       -0.2705
     10 C          64.8313   83.1365   10.7316 C.3     1  UNL1        0.1187
     11 C          62.9910   83.3097   12.5574 C.ar    1  UNL1        0.1382
     12 N          62.1913   82.0490   12.7019 N.ar    1  UNL1       -0.2157
     13 C          61.6518   81.6528   14.0443 C.ar    1  UNL1        0.1409
     14 C          60.8521   80.3919   14.1888 C.3     1  UNL1        0.0737
     15 N          61.9120   82.5173   15.2421 N.ar    1  UNL1       -0.2306
     16 C          62.7118   83.7781   15.0976 C.ar    1  UNL1        0.0853
     17 C          62.9720   84.6427   16.2954 C.ar    1  UNL1        0.0192
     18 C          63.7716   85.9035   16.1509 C.ar    1  UNL1        0.0015
     19 C          64.3111   86.2997   14.8085 C.ar    1  UNL1        0.0002
     20 C          64.0509   85.4351   13.6107 C.ar    1  UNL1        0.0043
     21 C          63.2512   84.1744   13.7552 C.ar    1  UNL1        0.0496
     22 O          59.9135   87.4035   10.7195 O.3     1  UNL1       -0.4668
     23 C          60.3107   88.6874   11.3855 C.3     1  UNL1        0.2430
     24 C          61.7533   89.0966   11.4254 C.2     1  UNL1        0.2845
     25 O          62.4441   89.5332   10.1676 O.2     1  UNL1       -0.2691
     26 N          62.5050   89.0694   12.7232 N.am    1  UNL1       -0.1940
     27 O          63.9476   89.4786   12.7631 O.3     1  UNL1       -0.2951
     28 H          62.0516   88.7829   13.5487 H       1  UNL1        0.1823
     29 H          64.2371   89.7301   11.8721 H       1  UNL1        0.2414
     30 C          59.2654   89.5622   12.0117 C.3     1  UNL1        0.0493
     31 C          58.3626   89.0089   13.0743 C.3     1  UNL1        0.0042
     32 C          59.1228   90.9902   11.5754 C.3     1  UNL1        0.0042
@<TRIPOS>BOND
     1     7     8    1
     2     8     1    1
     3     1     2   ar
     4     2     3   ar
     5     3     4   ar
     6     4     9    1
     7     9    10    1
     8     9    11    1
     9    11    12   ar
    10    12    13   ar
    11    13    14    1
    12    13    15   ar
    13    15    16   ar
    14    16    17   ar
    15    17    18   ar
    16    18    19   ar
    17    19    20   ar
    18    20    21   ar
    19     4     5   ar
    20     5     6   ar
    21     6    22    1
    22    22    23    1
    23    23    24    1
    24    24    25    2
    25    24    26   am
    26    26    27    1
    27    23    30    1
    28    30    31    1
    29    30    32    1
    30     6     1   ar
    31    21    11   ar
    32    21    16   ar
    33    26    28    1
    34    27    29    1
