@<TRIPOS>MOLECULE
*****
 33 38 0 0 0
SMALL
GASTEIGER

@<TRIPOS>ATOM
      1 C          62.8044   90.8499   11.7886 C.3     1  UNL1        0.0749
      2 C          64.0873   91.6203   11.6866 C.3     1  UNL1        0.0444
      3 C          65.0363   91.6539   12.8477 C.ar    1  UNL1       -0.0101
      4 C          64.7024   90.9171   14.1108 C.ar    1  UNL1       -0.0091
      5 C          65.6515   90.9507   15.2720 C.ar    1  UNL1       -0.0032
      6 C          66.9344   91.7211   15.1699 C.ar    1  UNL1        0.0010
      7 C          67.2684   92.4579   13.9068 C.ar    1  UNL1        0.0142
      8 C          66.3194   92.4243   12.7457 C.ar    1  UNL1        0.0436
      9 C          63.4194   90.1467   14.2129 C.3     1  UNL1        0.0954
     10 N          62.4704   90.1131   13.0518 N.3     1  UNL1       -0.2934
     11 H          61.5829   90.4888   13.3859 H       1  UNL1        0.1236
     12 N          66.6533   93.1612   11.4825 N.pl3   1  UNL1       -0.3049
     13 C          67.5062   92.5073   10.4360 C.3     1  UNL1        0.1081
     14 C          67.8402   93.2442    9.1728 C.3     1  UNL1        0.0938
     15 N          67.3212   94.6348    8.9562 N.3     1  UNL1       -0.2709
     16 C          67.4832   95.6009    7.8203 C.3     1  UNL1        0.0722
     17 C          66.7304   96.8518    8.1647 C.3     1  UNL1        0.0188
     18 C          66.1032   96.6587    9.5135 C.3     1  UNL1        0.0191
     19 C          66.4683   95.2885   10.0027 C.3     1  UNL1        0.0774
     20 C          66.1344   94.5517   11.2658 C.3     1  UNL1        0.1067
     21 C          61.8553   90.8164   10.6275 C.3     1  UNL1        0.0886
     22 C          59.4693   90.3296   11.5334 C.3     1  UNL1        0.0899
     23 N          60.6387   89.9404   10.6783 N.3     1  UNL1       -0.2667
     24 C          60.5915   88.6750    9.8741 C.3     1  UNL1        0.0978
     25 C          59.8393   88.6385    8.5769 C.3     1  UNL1        0.0224
     26 C          59.7921   87.3732    7.7727 C.3     1  UNL1        0.0065
     27 C          60.4971   86.1444    8.2657 C.3     1  UNL1        0.0277
     28 C          61.2493   86.1809    9.5630 C.ar    1  UNL1       -0.0073
     29 C          61.9543   84.9522   10.0560 C.ar    1  UNL1       -0.0015
     30 C          62.7066   84.9887   11.3532 C.ar    1  UNL1        0.0203
     31 C          62.7538   86.2540   12.1574 C.ar    1  UNL1        0.0985
     32 N          62.0488   87.4828   11.6644 N.ar    1  UNL1       -0.2471
     33 C          61.2966   87.4462   10.3672 C.ar    1  UNL1        0.0695
@<TRIPOS>BOND
     1    22    23    1
     2    23    21    1
     3     1    21    1
     4     1     2    1
     5     2     3    1
     6     3     4   ar
     7     4     5   ar
     8     5     6   ar
     9     6     7   ar
    10     7     8   ar
    11     8    12    1
    12    12    13    1
    13    13    14    1
    14    14    15    1
    15    15    16    1
    16    16    17    1
    17    17    18    1
    18    19    18    1
    19    19    20    1
    20     4     9    1
    21     9    10    1
    22    24    23    1
    23    24    25    1
    24    25    26    1
    25    26    27    1
    26    27    28    1
    27    28    29   ar
    28    29    30   ar
    29    30    31   ar
    30    31    32   ar
    31    32    33   ar
    32    10     1    1
    33    33    24    1
    34     8     3   ar
    35    20    12    1
    36    33    28   ar
    37    19    15    1
    38    10    11    1
@<TRIPOS>MOLECULE
*****
 33 38 0 0 0
SMALL
GASTEIGER

@<TRIPOS>ATOM
      1 C          63.1932   90.0591   12.0116 C.3     1  UNL1        0.0749
      2 C          64.2379   91.1353   11.9930 C.3     1  UNL1        0.0444
      3 C          64.8403   91.6180   13.2791 C.ar    1  UNL1       -0.0101
      4 C          64.3980   91.0245   14.5838 C.ar    1  UNL1       -0.0091
      5 C          65.0005   91.5072   15.8699 C.ar    1  UNL1       -0.0032
      6 C          66.0451   92.5834   15.8514 C.ar    1  UNL1        0.0010
      7 C          66.4874   93.1769   14.5467 C.ar    1  UNL1        0.0142
      8 C          65.8850   92.6942   13.2606 C.ar    1  UNL1        0.0436
      9 C          63.3533   89.9483   14.6023 C.3     1  UNL1        0.0954
     10 N          62.7509   89.4656   13.3162 N.3     1  UNL1       -0.2934
     11 H          61.7454   89.6221   13.3851 H       1  UNL1        0.1236
     12 N          66.3273   93.2878   11.9560 N.pl3   1  UNL1       -0.3049
     13 C          67.0326   92.4338   10.9443 C.3     1  UNL1        0.1081
     14 C          67.4749   93.0273    9.6396 C.3     1  UNL1        0.0938
     15 N          67.2119   94.4748    9.3467 N.3     1  UNL1       -0.2709
     16 C          67.5283   95.3315    8.1568 C.3     1  UNL1        0.0722
     17 C          67.0186   96.7150    8.4331 C.3     1  UNL1        0.0188
     18 C          66.3872   96.7132    9.7937 C.3     1  UNL1        0.0191
     19 C          66.5067   95.3287   10.3583 C.3     1  UNL1        0.0774
     20 C          66.0644   94.7351   11.6630 C.3     1  UNL1        0.1067
     21 C          62.5908   89.5764   10.7254 C.3     1  UNL1        0.0886
     22 C          60.2705   88.5439   11.2735 C.3     1  UNL1        0.0899
     23 N          61.6604   88.3998   10.7281 N.3     1  UNL1       -0.2667
     24 C          62.1199   87.0791   10.1854 C.3     1  UNL1        0.0978
     25 C          61.9868   86.7827    8.7211 C.3     1  UNL1        0.0224
     26 C          62.4463   85.4619    8.1784 C.3     1  UNL1        0.0065
     27 C          63.0389   84.4376    9.1000 C.3     1  UNL1        0.0277
     28 C          63.1721   84.7340   10.5644 C.ar    1  UNL1       -0.0073
     29 C          63.7647   83.7097   11.4861 C.ar    1  UNL1       -0.0015
     30 C          63.8979   84.0061   12.9504 C.ar    1  UNL1        0.0203
     31 C          63.4384   85.3268   13.4931 C.ar    1  UNL1        0.0985
     32 N          62.8457   86.3511   12.5715 N.ar    1  UNL1       -0.2471
     33 C          62.7126   86.0547   11.1071 C.ar    1  UNL1        0.0695
@<TRIPOS>BOND
     1    22    23    1
     2    23    21    1
     3     1    21    1
     4     1     2    1
     5     2     3    1
     6     3     4   ar
     7     4     5   ar
     8     5     6   ar
     9     6     7   ar
    10     7     8   ar
    11     8    12    1
    12    12    13    1
    13    13    14    1
    14    14    15    1
    15    15    16    1
    16    16    17    1
    17    17    18    1
    18    19    18    1
    19    19    20    1
    20     4     9    1
    21     9    10    1
    22    24    23    1
    23    24    25    1
    24    25    26    1
    25    26    27    1
    26    27    28    1
    27    28    29   ar
    28    29    30   ar
    29    30    31   ar
    30    31    32   ar
    31    32    33   ar
    32    10     1    1
    33    33    24    1
    34     8     3   ar
    35    20    12    1
    36    33    28   ar
    37    19    15    1
    38    10    11    1
@<TRIPOS>MOLECULE
*****
 33 38 0 0 0
SMALL
GASTEIGER

@<TRIPOS>ATOM
      1 C          63.0867   90.8305   12.5025 C.3     1  UNL1        0.0749
      2 C          64.2755   91.7241   12.3071 C.3     1  UNL1        0.0444
      3 C          65.1731   92.0421   13.4660 C.ar    1  UNL1       -0.0101
      4 C          64.8819   91.4667   14.8203 C.ar    1  UNL1       -0.0091
      5 C          65.7796   91.7848   15.9792 C.ar    1  UNL1       -0.0032
      6 C          66.9684   92.6784   15.7839 C.ar    1  UNL1        0.0010
      7 C          67.2596   93.2539   14.4296 C.ar    1  UNL1        0.0142
      8 C          66.3620   92.9358   13.2707 C.ar    1  UNL1        0.0436
      9 C          63.6931   90.5731   15.0157 C.3     1  UNL1        0.0954
     10 N          62.7955   90.2550   13.8568 N.3     1  UNL1       -0.2934
     11 H          61.8596   90.5679   14.1146 H       1  UNL1        0.1236
     12 N          66.6532   93.5113   11.9165 N.pl3   1  UNL1       -0.3049
     13 C          67.3291   92.6708   10.8739 C.3     1  UNL1        0.1081
     14 C          67.6202   93.2463    9.5196 C.3     1  UNL1        0.0938
     15 N          67.2356   94.6623    9.2079 N.3     1  UNL1       -0.2709
     16 C          67.3932   95.4960    7.9710 C.3     1  UNL1        0.0722
     17 C          66.8147   96.8517    8.2491 C.3     1  UNL1        0.0188
     18 C          66.2996   96.8559    9.6579 C.3     1  UNL1        0.0191
     19 C          66.5598   95.5027   10.2505 C.3     1  UNL1        0.0774
     20 C          66.2686   94.9272   11.6047 C.3     1  UNL1        0.1067
     21 C          62.1891   90.5123   11.3436 C.3     1  UNL1        0.0886
     22 C          59.8464   89.7456   12.1647 C.3     1  UNL1        0.0899
     23 N          61.1442   89.4443   11.4754 N.3     1  UNL1       -0.2667
     24 C          61.3969   88.0749   10.9178 C.3     1  UNL1        0.0978
     25 C          62.3000   87.1237   11.6456 C.3     1  UNL1        0.0224
     26 C          62.5528   85.7543   11.0881 C.3     1  UNL1        0.0065
     27 C          61.9024   85.3361    9.8028 C.3     1  UNL1        0.0277
     28 C          60.9992   86.2872    9.0749 C.ar    1  UNL1       -0.0073
     29 C          60.3488   85.8689    7.7897 C.ar    1  UNL1       -0.0015
     30 C          59.4457   86.8201    7.0619 C.ar    1  UNL1        0.0203
     31 C          59.1930   88.1895    7.6194 C.ar    1  UNL1        0.0985
     32 N          59.8433   88.6078    8.9047 N.ar    1  UNL1       -0.2471
     33 C          60.7465   87.6566    9.6325 C.ar    1  UNL1        0.0695
@<TRIPOS>BOND
     1    22    23    1
     2    23    21    1
     3     1    21    1
     4     1     2    1
     5     2     3    1
     6     3     4   ar
     7     4     5   ar
     8     5     6   ar
     9     6     7   ar
    10     7     8   ar
    11     8    12    1
    12    12    13    1
    13    13    14    1
    14    14    15    1
    15    15    16    1
    16    16    17    1
    17    17    18    1
    18    19    18    1
    19    19    20    1
    20     4     9    1
    21     9    10    1
    22    24    23    1
    23    24    25    1
    24    25    26    1
    25    26    27    1
    26    27    28    1
    27    28    29   ar
    28    29    30   ar
    29    30    31   ar
    30    31    32   ar
    31    32    33   ar
    32    10     1    1
    33    33    24    1
    34     8     3   ar
    35    20    12    1
    36    33    28   ar
    37    19    15    1
    38    10    11    1
@<TRIPOS>MOLECULE
*****
 33 38 0 0 0
SMALL
GASTEIGER

@<TRIPOS>ATOM
      1 C          63.8185   91.5933   10.9304 C.3     1  UNL1        0.0749
      2 C          64.0988   91.1374   12.3316 C.3     1  UNL1        0.0444
      3 C          65.0774   91.8902   13.1835 C.ar    1  UNL1       -0.0101
      4 C          65.7757   93.0987   12.6341 C.ar    1  UNL1       -0.0091
      5 C          66.7543   93.8515   13.4860 C.ar    1  UNL1       -0.0032
      6 C          67.0347   93.3957   14.8873 C.ar    1  UNL1        0.0010
      7 C          66.3364   92.1871   15.4367 C.ar    1  UNL1        0.0142
      8 C          65.3579   91.4344   14.5848 C.ar    1  UNL1        0.0436
      9 C          65.4953   93.5546   11.2328 C.3     1  UNL1        0.0954
     10 N          64.5167   92.8018   10.3810 N.3     1  UNL1       -0.2934
     11 H          65.0234   92.4967    9.5500 H       1  UNL1        0.1236
     12 N          64.6596   90.2258   15.1342 N.pl3   1  UNL1       -0.3049
     13 C          63.6495   90.3779   16.2328 C.3     1  UNL1        0.1081
     14 C          62.9513   89.1693   16.7822 C.3     1  UNL1        0.0938
     15 N          63.2632   87.8087   16.2331 N.3     1  UNL1       -0.2709
     16 C          62.7388   86.4450   16.5727 C.3     1  UNL1        0.0722
     17 C          63.4249   85.4501   15.6842 C.3     1  UNL1        0.0188
     18 C          64.3732   86.1989   14.7954 C.3     1  UNL1        0.0191
     19 C          64.2732   87.6566   15.1346 C.3     1  UNL1        0.0774
     20 C          64.9714   88.8652   14.5852 C.3     1  UNL1        0.1067
     21 C          62.8398   90.8405   10.0784 C.3     1  UNL1        0.0886
     22 C          60.7025   90.7135   11.5501 C.3     1  UNL1        0.0899
     23 N          61.7515   90.0330   10.7215 N.3     1  UNL1       -0.2667
     24 C          61.7122   88.5451   10.5360 C.3     1  UNL1        0.0978
     25 C          62.4912   87.6536   11.4570 C.3     1  UNL1        0.0224
     26 C          62.4519   86.1656   11.2715 C.3     1  UNL1        0.0065
     27 C          61.6335   85.5691   10.1650 C.3     1  UNL1        0.0277
     28 C          60.8545   86.4606    9.2439 C.ar    1  UNL1       -0.0073
     29 C          60.0361   85.8642    8.1374 C.ar    1  UNL1       -0.0015
     30 C          59.2571   86.7556    7.2163 C.ar    1  UNL1        0.0203
     31 C          59.2964   88.2436    7.4018 C.ar    1  UNL1        0.0985
     32 N          60.1148   88.8401    8.5084 N.ar    1  UNL1       -0.2471
     33 C          60.8938   87.9486    9.4294 C.ar    1  UNL1        0.0695
@<TRIPOS>BOND
     1    22    23    1
     2    23    21    1
     3     1    21    1
     4     1     2    1
     5     2     3    1
     6     3     4   ar
     7     4     5   ar
     8     5     6   ar
     9     6     7   ar
    10     7     8   ar
    11     8    12    1
    12    12    13    1
    13    13    14    1
    14    14    15    1
    15    15    16    1
    16    16    17    1
    17    17    18    1
    18    19    18    1
    19    19    20    1
    20     4     9    1
    21     9    10    1
    22    24    23    1
    23    24    25    1
    24    25    26    1
    25    26    27    1
    26    27    28    1
    27    28    29   ar
    28    29    30   ar
    29    30    31   ar
    30    31    32   ar
    31    32    33   ar
    32    10     1    1
    33    33    24    1
    34     8     3   ar
    35    20    12    1
    36    33    28   ar
    37    19    15    1
    38    10    11    1
@<TRIPOS>MOLECULE
*****
 33 38 0 0 0
SMALL
GASTEIGER

@<TRIPOS>ATOM
      1 C          62.3148   90.8357   10.9252 C.3     1  UNL1        0.0749
      2 C          62.9959   90.4875   12.2155 C.3     1  UNL1        0.0444
      3 C          64.3469   91.0592   12.5284 C.ar    1  UNL1       -0.0101
      4 C          65.0168   91.9790   11.5511 C.ar    1  UNL1       -0.0091
      5 C          66.3679   92.5506   11.8641 C.ar    1  UNL1       -0.0032
      6 C          67.0490   92.2024   13.1544 C.ar    1  UNL1        0.0010
      7 C          66.3790   91.2826   14.1317 C.ar    1  UNL1        0.0142
      8 C          65.0280   90.7110   13.8188 C.ar    1  UNL1        0.0436
      9 C          64.3357   92.3271   10.2608 C.3     1  UNL1        0.0954
     10 N          62.9847   91.7555    9.9479 N.3     1  UNL1       -0.2934
     11 H          63.0792   91.2382    9.0738 H       1  UNL1        0.1236
     12 N          64.3581   89.7912   14.7961 N.pl3   1  UNL1       -0.3049
     13 C          63.5271   90.3566   15.9096 C.3     1  UNL1        0.1081
     14 C          62.8571   89.4368   16.8869 C.3     1  UNL1        0.0938
     15 N          63.0182   87.9516   16.7507 N.3     1  UNL1       -0.2709
     16 C          62.4820   86.8059   17.5567 C.3     1  UNL1        0.0722
     17 C          62.9817   85.5324   16.9414 C.3     1  UNL1        0.0188
     18 C          63.8267   85.8912   15.7551 C.3     1  UNL1        0.0191
     19 C          63.8493   87.3863   15.6373 C.3     1  UNL1        0.0774
     20 C          64.5192   88.3061   14.6600 C.3     1  UNL1        0.1067
     21 C          60.9637   90.2641   10.6122 C.3     1  UNL1        0.0886
     22 C          59.9416   88.5824   12.3084 C.3     1  UNL1        0.0899
     23 N          60.6359   88.8546   11.0069 N.3     1  UNL1       -0.2667
     24 C          61.0024   87.7173   10.1002 C.3     1  UNL1        0.0978
     25 C          60.5245   87.7077    8.6784 C.3     1  UNL1        0.0224
     26 C          60.8910   86.5703    7.7717 C.3     1  UNL1        0.0065
     27 C          61.7353   85.4426    8.2867 C.3     1  UNL1        0.0277
     28 C          62.2132   85.4522    9.7086 C.ar    1  UNL1       -0.0073
     29 C          63.0576   84.3245   10.2236 C.ar    1  UNL1       -0.0015
     30 C          63.5354   84.3341   11.6454 C.ar    1  UNL1        0.0203
     31 C          63.1689   85.4714   12.5521 C.ar    1  UNL1        0.0985
     32 N          62.3246   86.5991   12.0371 N.ar    1  UNL1       -0.2471
     33 C          61.8468   86.5895   10.6153 C.ar    1  UNL1        0.0695
@<TRIPOS>BOND
     1    22    23    1
     2    23    21    1
     3     1    21    1
     4     1     2    1
     5     2     3    1
     6     3     4   ar
     7     4     5   ar
     8     5     6   ar
     9     6     7   ar
    10     7     8   ar
    11     8    12    1
    12    12    13    1
    13    13    14    1
    14    14    15    1
    15    15    16    1
    16    16    17    1
    17    17    18    1
    18    19    18    1
    19    19    20    1
    20     4     9    1
    21     9    10    1
    22    24    23    1
    23    24    25    1
    24    25    26    1
    25    26    27    1
    26    27    28    1
    27    28    29   ar
    28    29    30   ar
    29    30    31   ar
    30    31    32   ar
    31    32    33   ar
    32    10     1    1
    33    33    24    1
    34     8     3   ar
    35    20    12    1
    36    33    28   ar
    37    19    15    1
    38    10    11    1
@<TRIPOS>MOLECULE
*****
 33 38 0 0 0
SMALL
GASTEIGER

@<TRIPOS>ATOM
      1 C          64.4630   86.3513   14.6872 C.3     1  UNL1        0.0749
      2 C          63.7116   85.9479   13.4533 C.3     1  UNL1        0.0444
      3 C          63.3946   84.5027   13.2071 C.ar    1  UNL1       -0.0101
      4 C          63.8290   83.4607   14.1949 C.ar    1  UNL1       -0.0091
      5 C          63.5120   82.0154   13.9487 C.ar    1  UNL1       -0.0032
      6 C          62.7607   81.6120   12.7147 C.ar    1  UNL1        0.0010
      7 C          62.3263   82.6539   11.7269 C.ar    1  UNL1        0.0142
      8 C          62.6433   84.0992   11.9731 C.ar    1  UNL1        0.0436
      9 C          64.5804   83.8641   15.4289 C.3     1  UNL1        0.0954
     10 N          64.8973   85.3094   15.6750 N.3     1  UNL1       -0.2934
     11 H          65.9121   85.3796   15.7500 H       1  UNL1        0.1236
     12 N          62.2089   85.1411   10.9853 N.pl3   1  UNL1       -0.3049
     13 C          62.7431   85.1149    9.5838 C.3     1  UNL1        0.1081
     14 C          62.3087   86.1568    8.5960 C.3     1  UNL1        0.0938
     15 N          61.3401   87.2249    9.0097 N.3     1  UNL1       -0.2709
     16 C          60.7349   88.3754    8.2613 C.3     1  UNL1        0.0722
     17 C          59.8267   89.1127    9.2002 C.3     1  UNL1        0.0188
     18 C          59.8706   88.4178   10.5288 C.3     1  UNL1        0.0191
     19 C          60.8060   87.2511   10.4111 C.3     1  UNL1        0.0774
     20 C          61.2404   86.2092   11.3989 C.3     1  UNL1        0.1067
     21 C          64.7800   87.7966   14.9335 C.3     1  UNL1        0.0886
     22 C          62.6216   89.0238   15.6986 C.3     1  UNL1        0.0899
     23 N          63.7309   88.8441   14.7050 N.3     1  UNL1       -0.2667
     24 C          63.7910   89.7117   13.4829 C.3     1  UNL1        0.0978
     25 C          62.9818   89.3571   12.2707 C.3     1  UNL1        0.0224
     26 C          63.0419   90.2248   11.0486 C.3     1  UNL1        0.0065
     27 C          63.9112   91.4471   11.0387 C.3     1  UNL1        0.0277
     28 C          64.7205   91.8018   12.2509 C.ar    1  UNL1       -0.0073
     29 C          65.5898   93.0241   12.2409 C.ar    1  UNL1       -0.0015
     30 C          66.3990   93.3788   13.4531 C.ar    1  UNL1        0.0203
     31 C          66.3389   92.5111   14.6752 C.ar    1  UNL1        0.0985
     32 N          65.4696   91.2888   14.6851 N.ar    1  UNL1       -0.2471
     33 C          64.6604   90.9341   13.4730 C.ar    1  UNL1        0.0695
@<TRIPOS>BOND
     1    22    23    1
     2    23    21    1
     3     1    21    1
     4     1     2    1
     5     2     3    1
     6     3     4   ar
     7     4     5   ar
     8     5     6   ar
     9     6     7   ar
    10     7     8   ar
    11     8    12    1
    12    12    13    1
    13    13    14    1
    14    14    15    1
    15    15    16    1
    16    16    17    1
    17    17    18    1
    18    19    18    1
    19    19    20    1
    20     4     9    1
    21     9    10    1
    22    24    23    1
    23    24    25    1
    24    25    26    1
    25    26    27    1
    26    27    28    1
    27    28    29   ar
    28    29    30   ar
    29    30    31   ar
    30    31    32   ar
    31    32    33   ar
    32    10     1    1
    33    33    24    1
    34     8     3   ar
    35    20    12    1
    36    33    28   ar
    37    19    15    1
    38    10    11    1
@<TRIPOS>MOLECULE
*****
 33 38 0 0 0
SMALL
GASTEIGER

@<TRIPOS>ATOM
      1 C          63.2410   86.6586   13.1363 C.3     1  UNL1        0.0749
      2 C          63.4034   88.0745   12.6686 C.3     1  UNL1        0.0444
      3 C          62.5913   88.5806   11.5135 C.ar    1  UNL1       -0.0101
      4 C          61.6167   87.6708   10.8261 C.ar    1  UNL1       -0.0091
      5 C          60.8046   88.1769    9.6709 C.ar    1  UNL1       -0.0032
      6 C          60.9670   89.5928    9.2033 C.ar    1  UNL1        0.0010
      7 C          61.9415   90.5027    9.8907 C.ar    1  UNL1        0.0142
      8 C          62.7536   89.9966   11.0458 C.ar    1  UNL1        0.0436
      9 C          61.4543   86.2549   11.2938 C.3     1  UNL1        0.0954
     10 N          62.2665   85.7488   12.4489 N.3     1  UNL1       -0.2934
     11 H          62.8006   84.9504   12.1059 H       1  UNL1        0.1236
     12 N          63.7281   90.9064   11.7332 N.pl3   1  UNL1       -0.3049
     13 C          64.4554   91.9573   10.9478 C.3     1  UNL1        0.1081
     14 C          65.4299   92.8671   11.6353 C.3     1  UNL1        0.0938
     15 N          65.6771   92.7261   13.1081 N.3     1  UNL1       -0.2709
     16 C          66.5727   93.4729   14.0515 C.3     1  UNL1        0.0722
     17 C          66.3990   92.8837   15.4199 C.3     1  UNL1        0.0188
     18 C          65.3960   91.7726   15.3222 C.3     1  UNL1        0.0191
     19 C          64.9499   91.6752   13.8934 C.3     1  UNL1        0.0774
     20 C          63.9754   90.7654   13.2059 C.3     1  UNL1        0.1067
     21 C          64.0531   86.1524   14.2915 C.3     1  UNL1        0.0886
     22 C          66.0650   84.5224   14.5048 C.3     1  UNL1        0.0899
     23 N          64.6025   84.7569   14.2677 N.3     1  UNL1       -0.2667
     24 C          63.6894   83.5958   14.0067 C.3     1  UNL1        0.0978
     25 C          62.7744   83.1033   15.0885 C.3     1  UNL1        0.0224
     26 C          61.8613   81.9422   14.8276 C.3     1  UNL1        0.0065
     27 C          61.8632   81.2735   13.4849 C.3     1  UNL1        0.0277
     28 C          62.7782   81.7660   12.4030 C.ar    1  UNL1       -0.0073
     29 C          62.7801   81.0974   11.0603 C.ar    1  UNL1       -0.0015
     30 C          63.6950   81.5899    9.9786 C.ar    1  UNL1        0.0203
     31 C          64.6081   82.7510   10.2395 C.ar    1  UNL1        0.0985
     32 N          64.6062   83.4196   11.5822 N.ar    1  UNL1       -0.2471
     33 C          63.6913   82.9271   12.6640 C.ar    1  UNL1        0.0695
@<TRIPOS>BOND
     1    22    23    1
     2    23    21    1
     3     1    21    1
     4     1     2    1
     5     2     3    1
     6     3     4   ar
     7     4     5   ar
     8     5     6   ar
     9     6     7   ar
    10     7     8   ar
    11     8    12    1
    12    12    13    1
    13    13    14    1
    14    14    15    1
    15    15    16    1
    16    16    17    1
    17    17    18    1
    18    19    18    1
    19    19    20    1
    20     4     9    1
    21     9    10    1
    22    24    23    1
    23    24    25    1
    24    25    26    1
    25    26    27    1
    26    27    28    1
    27    28    29   ar
    28    29    30   ar
    29    30    31   ar
    30    31    32   ar
    31    32    33   ar
    32    10     1    1
    33    33    24    1
    34     8     3   ar
    35    20    12    1
    36    33    28   ar
    37    19    15    1
    38    10    11    1
@<TRIPOS>MOLECULE
*****
 33 38 0 0 0
SMALL
GASTEIGER

@<TRIPOS>ATOM
      1 C          63.6304   86.9174   13.8719 C.3     1  UNL1        0.0749
      2 C          63.0785   87.4139   12.5685 C.3     1  UNL1        0.0444
      3 C          63.2141   88.8615   12.1995 C.ar    1  UNL1       -0.0101
      4 C          63.9014   89.8125   13.1340 C.ar    1  UNL1       -0.0091
      5 C          64.0369   91.2601   12.7649 C.ar    1  UNL1       -0.0032
      6 C          63.4850   91.7567   11.4616 C.ar    1  UNL1        0.0010
      7 C          62.7977   90.8057   10.5271 C.ar    1  UNL1        0.0142
      8 C          62.6622   89.3581   10.8961 C.ar    1  UNL1        0.0436
      9 C          64.4532   89.3159   14.4374 C.3     1  UNL1        0.0954
     10 N          64.3177   87.8684   14.8063 N.3     1  UNL1       -0.2934
     11 H          63.8062   87.8359   15.6882 H       1  UNL1        0.1236
     12 N          61.9749   88.4071    9.9616 N.pl3   1  UNL1       -0.3049
     13 C          60.5209   88.5900    9.6411 C.3     1  UNL1        0.1081
     14 C          59.8336   87.6390    8.7066 C.3     1  UNL1        0.0938
     15 N          60.6002   86.5051    8.0928 N.3     1  UNL1       -0.2709
     16 C          60.1944   85.4169    7.1436 C.3     1  UNL1        0.0722
     17 C          61.3975   84.5615    6.8775 C.3     1  UNL1        0.0188
     18 C          62.5469   85.1211    7.6622 C.3     1  UNL1        0.0191
     19 C          62.0541   86.3223    8.4133 C.3     1  UNL1        0.0774
     20 C          62.7414   87.2733    9.3478 C.3     1  UNL1        0.1067
     21 C          63.4949   85.4698   14.2409 C.3     1  UNL1        0.0886
     22 C          65.8549   84.4027   14.4456 C.3     1  UNL1        0.0899
     23 N          64.5169   84.4773   13.7715 N.3     1  UNL1       -0.2667
     24 C          64.2011   83.5594   12.6279 C.3     1  UNL1        0.0978
     25 C          64.5926   83.9397   11.2308 C.3     1  UNL1        0.0224
     26 C          64.2768   83.0218   10.0872 C.3     1  UNL1        0.0065
     27 C          63.5694   81.7236   10.3408 C.3     1  UNL1        0.0277
     28 C          63.1778   81.3433   11.7380 C.ar    1  UNL1       -0.0073
     29 C          62.4705   80.0451   11.9915 C.ar    1  UNL1       -0.0015
     30 C          62.0789   79.6649   13.3887 C.ar    1  UNL1        0.0203
     31 C          62.3947   80.5827   14.5322 C.ar    1  UNL1        0.0985
     32 N          63.1021   81.8809   14.2787 N.ar    1  UNL1       -0.2471
     33 C          63.4937   82.2612   12.8815 C.ar    1  UNL1        0.0695
@<TRIPOS>BOND
     1    22    23    1
     2    23    21    1
     3     1    21    1
     4     1     2    1
     5     2     3    1
     6     3     4   ar
     7     4     5   ar
     8     5     6   ar
     9     6     7   ar
    10     7     8   ar
    11     8    12    1
    12    12    13    1
    13    13    14    1
    14    14    15    1
    15    15    16    1
    16    16    17    1
    17    17    18    1
    18    19    18    1
    19    19    20    1
    20     4     9    1
    21     9    10    1
    22    24    23    1
    23    24    25    1
    24    25    26    1
    25    26    27    1
    26    27    28    1
    27    28    29   ar
    28    29    30   ar
    29    30    31   ar
    30    31    32   ar
    31    32    33   ar
    32    10     1    1
    33    33    24    1
    34     8     3   ar
    35    20    12    1
    36    33    28   ar
    37    19    15    1
    38    10    11    1
@<TRIPOS>MOLECULE
*****
 33 38 0 0 0
SMALL
GASTEIGER

@<TRIPOS>ATOM
      1 C          63.9624   84.9399   13.7986 C.3     1  UNL1        0.0749
      2 C          63.9415   86.4196   14.0430 C.3     1  UNL1        0.0444
      3 C          63.5871   86.9507   15.4003 C.ar    1  UNL1       -0.0101
      4 C          63.2535   86.0019   16.5132 C.ar    1  UNL1       -0.0091
      5 C          62.8991   86.5330   17.8706 C.ar    1  UNL1       -0.0032
      6 C          62.8783   88.0128   18.1150 C.ar    1  UNL1        0.0010
      7 C          63.2119   88.9615   17.0021 C.ar    1  UNL1        0.0142
      8 C          63.5663   88.4305   15.6448 C.ar    1  UNL1        0.0436
      9 C          63.2744   84.5221   16.2688 C.3     1  UNL1        0.0954
     10 N          63.6288   83.9911   14.9115 N.3     1  UNL1       -0.2934
     11 H          62.8340   83.4351   14.5961 H       1  UNL1        0.1236
     12 N          63.8998   89.3793   14.5318 N.pl3   1  UNL1       -0.3049
     13 C          65.0478   90.3337   14.6787 C.3     1  UNL1        0.1081
     14 C          65.3814   91.2824   13.5658 C.3     1  UNL1        0.0938
     15 N          64.5670   91.2768   12.3060 N.3     1  UNL1       -0.2709
     16 C          64.6578   92.0896   11.0486 C.3     1  UNL1        0.0722
     17 C          63.5660   91.6376   10.1247 C.3     1  UNL1        0.0188
     18 C          62.8005   90.5454   10.8111 C.3     1  UNL1        0.0191
     19 C          63.4191   90.3224   12.1592 C.3     1  UNL1        0.0774
     20 C          63.0856   89.3737   13.2722 C.3     1  UNL1        0.1067
     21 C          64.3168   84.4088   12.4412 C.3     1  UNL1        0.0886
     22 C          62.5479   82.5663   11.9652 C.3     1  UNL1        0.0899
     23 N          63.2499   83.8288   11.5607 N.3     1  UNL1       -0.2667
     24 C          62.8849   84.5111   10.2757 C.3     1  UNL1        0.0978
     25 C          63.4296   84.0009    8.9746 C.3     1  UNL1        0.0224
     26 C          63.0646   84.6833    7.6896 C.3     1  UNL1        0.0065
     27 C          62.1549   85.8759    7.7058 C.3     1  UNL1        0.0277
     28 C          61.6102   86.3861    9.0070 C.ar    1  UNL1       -0.0073
     29 C          60.7006   87.5787    9.0231 C.ar    1  UNL1       -0.0015
     30 C          60.1559   88.0888   10.3243 C.ar    1  UNL1        0.0203
     31 C          60.5209   87.4065   11.6092 C.ar    1  UNL1        0.0985
     32 N          61.4305   86.2139   11.5931 N.ar    1  UNL1       -0.2471
     33 C          61.9752   85.7037   10.2919 C.ar    1  UNL1        0.0695
@<TRIPOS>BOND
     1    22    23    1
     2    23    21    1
     3     1    21    1
     4     1     2    1
     5     2     3    1
     6     3     4   ar
     7     4     5   ar
     8     5     6   ar
     9     6     7   ar
    10     7     8   ar
    11     8    12    1
    12    12    13    1
    13    13    14    1
    14    14    15    1
    15    15    16    1
    16    16    17    1
    17    17    18    1
    18    19    18    1
    19    19    20    1
    20     4     9    1
    21     9    10    1
    22    24    23    1
    23    24    25    1
    24    25    26    1
    25    26    27    1
    26    27    28    1
    27    28    29   ar
    28    29    30   ar
    29    30    31   ar
    30    31    32   ar
    31    32    33   ar
    32    10     1    1
    33    33    24    1
    34     8     3   ar
    35    20    12    1
    36    33    28   ar
    37    19    15    1
    38    10    11    1
