@<TRIPOS>MOLECULE
*****
 44 48 0 0 0
SMALL
GASTEIGER

@<TRIPOS>ATOM
      1 N          64.2586   89.5384   14.4308 N.pl3   1  UNL1       -0.1812
      2 C          65.1606   90.6887   14.7677 C.ar    1  UNL1        0.0694
      3 C          66.3795   90.9549   13.9349 C.ar    1  UNL1        0.0170
      4 C          67.2813   92.1052   14.2718 C.ar    1  UNL1        0.0127
      5 C          66.9643   92.9892   15.4414 C.ar    1  UNL1        0.0578
      6 CL         67.8662   94.1394   15.7783 Cl      1  UNL1       -0.0822
      7 C          65.7455   92.7229   16.2742 C.ar    1  UNL1        0.0127
      8 C          64.8436   91.5727   15.9373 C.ar    1  UNL1        0.0170
      9 S          63.3120   89.6420   13.2718 S.O2    1  UNL1        0.0770
     10 O          64.4572   89.4608   12.3202 O.2     1  UNL1       -0.1497
     11 O          62.1668   89.8232   14.2236 O.2     1  UNL1       -0.1497
     12 C          62.3654   89.7456   12.1130 C.ar    1  UNL1        0.1255
     13 C          60.8852   89.6705   12.3446 C.ar    1  UNL1        0.0215
     14 C          59.9385   89.7741   11.1858 C.ar    1  UNL1        0.0157
     15 C          60.4719   89.9528    9.7952 C.ar    1  UNL1        0.0448
     16 C          61.9520   90.0280    9.5635 C.ar    1  UNL1        0.0157
     17 C          62.8987   89.9243   10.7225 C.ar    1  UNL1        0.0215
     18 N          59.5252   90.0565    8.6364 N.pl3   1  UNL1       -0.3315
     19 H          58.9634   90.8579    8.5298 H       1  UNL1        0.1469
     20 C          59.4343   88.9389    7.6399 C.3     1  UNL1        0.1046
     21 C          59.2935   87.5222    8.1125 C.3     1  UNL1        0.0937
     22 N          60.4929   86.6223    8.1525 N.3     1  UNL1       -0.2670
     23 C          60.8216   85.7578    6.9715 C.3     1  UNL1        0.1047
     24 C          62.0210   84.8580    7.0115 C.3     1  UNL1        0.1595
     25 O          62.8918   84.8226    8.2324 O.3     1  UNL1       -0.3508
     26 C          62.5631   85.6871    9.4133 C.3     1  UNL1        0.1595
     27 C          61.3637   86.5870    9.3734 C.3     1  UNL1        0.1047
     28 C          64.3034   88.2845   15.2529 C.3     1  UNL1        0.2020
     29 O          65.3765   85.9353   14.9709 O.2     1  UNL1       -0.2715
     30 C          64.3402   86.9458   14.5773 C.2     1  UNL1        0.2632
     31 N          63.3407   86.6176   13.5081 N.am    1  UNL1       -0.2043
     32 H          62.6605   87.2808   13.2498 H       1  UNL1        0.1773
     33 N          63.3774   85.2788   12.8324 N.2     1  UNL1       -0.1745
     34 C          62.8845   84.0602   13.5551 C.2     1  UNL1        0.1531
     35 C          62.3303   84.0254   14.9485 C.2     1  UNL1        0.2688
     36 O          62.1716   85.2030   15.8639 O.2     1  UNL1       -0.2681
     37 N          61.9626   82.6062   15.2657 N.am    1  UNL1       -0.2791
     38 C          62.2896   81.7639   14.0683 C.ar    1  UNL1        0.0522
     39 C          62.1421   80.2948   13.8042 C.ar    1  UNL1        0.0147
     40 C          62.5645   79.7243   12.4828 C.ar    1  UNL1        0.0013
     41 C          63.1343   80.6229   11.4255 C.ar    1  UNL1        0.0001
     42 C          63.2817   82.0921   11.6897 C.ar    1  UNL1        0.0029
     43 C          62.8594   82.6625   13.0111 C.ar    1  UNL1        0.0371
     44 H          61.5747   82.2841   16.1113 H       1  UNL1        0.1552
@<TRIPOS>BOND
     1    29    30    2
     2    30    28    1
     3    28     1    1
     4     1     2    1
     5     2     3   ar
     6     3     4   ar
     7     4     5   ar
     8     5     6    1
     9     5     7   ar
    10     7     8   ar
    11     1     9    1
    12     9    10    2
    13     9    11    2
    14     9    12    1
    15    12    13   ar
    16    13    14   ar
    17    14    15   ar
    18    15    18    1
    19    18    20    1
    20    20    21    1
    21    21    22    1
    22    22    23    1
    23    23    24    1
    24    24    25    1
    25    25    26    1
    26    26    27    1
    27    15    16   ar
    28    16    17   ar
    29    30    31   am
    30    31    33    1
    31    33    34    2
    32    34    35    1
    33    35    36    2
    34    35    37   am
    35    37    38    1
    36    38    39   ar
    37    39    40   ar
    38    40    41   ar
    39    41    42   ar
    40    42    43   ar
    41     8     2   ar
    42    17    12   ar
    43    43    34    1
    44    27    22    1
    45    43    38   ar
    46    18    19    1
    47    31    32    1
    48    37    44    1
@<TRIPOS>MOLECULE
*****
 44 48 0 0 0
SMALL
GASTEIGER

@<TRIPOS>ATOM
      1 N          60.1359   88.1149    9.5554 N.pl3   1  UNL1       -0.1812
      2 C          61.0843   86.9533    9.5149 C.ar    1  UNL1        0.0694
      3 C          61.3629   86.1688   10.7627 C.ar    1  UNL1        0.0170
      4 C          62.3112   85.0073   10.7221 C.ar    1  UNL1        0.0127
      5 C          62.9808   84.6303    9.4339 C.ar    1  UNL1        0.0578
      6 CL         63.9291   83.4688    9.3935 Cl      1  UNL1       -0.0822
      7 C          62.7022   85.4148    8.1862 C.ar    1  UNL1        0.0127
      8 C          61.7539   86.5763    8.2267 C.ar    1  UNL1        0.0170
      9 S          59.8775   88.9157    8.3137 S.O2    1  UNL1        0.0770
     10 O          60.8749   89.9403    8.7669 O.2     1  UNL1       -0.1497
     11 O          58.8801   87.8910    7.8605 O.2     1  UNL1       -0.1497
     12 C          59.6190   89.7164    7.0720 C.ar    1  UNL1        0.1255
     13 C          60.7688   90.2059    6.2422 C.ar    1  UNL1        0.0215
     14 C          60.5104   91.0067    5.0005 C.ar    1  UNL1        0.0157
     15 C          59.1021   91.3180    4.5885 C.ar    1  UNL1        0.0448
     16 C          57.9523   90.8286    5.4181 C.ar    1  UNL1        0.0157
     17 C          58.2107   90.0278    6.6599 C.ar    1  UNL1        0.0215
     18 N          58.8437   92.1188    3.3467 N.pl3   1  UNL1       -0.3315
     19 H          57.9635   92.0761    2.9077 H       1  UNL1        0.1469
     20 C          59.9264   92.9847    2.7738 C.3     1  UNL1        0.1046
     21 C          60.3405   92.8185    1.3416 C.3     1  UNL1        0.0937
     22 N          61.7638   93.0674    0.9388 N.3     1  UNL1       -0.2670
     23 C          62.8768   92.7837    1.9035 C.3     1  UNL1        0.1047
     24 C          64.3001   93.0326    1.5008 C.3     1  UNL1        0.1595
     25 O          64.6104   93.5651    0.1333 O.3     1  UNL1       -0.3508
     26 C          63.4974   93.8488   -0.8315 C.3     1  UNL1        0.1595
     27 C          62.0741   93.6000   -0.4287 C.3     1  UNL1        0.1047
     28 C          59.4461   88.4756   10.8376 C.3     1  UNL1        0.2020
     29 O          59.5508   89.3761   13.2724 O.2     1  UNL1       -0.2715
     30 C          60.2357   89.0414   11.9805 C.2     1  UNL1        0.2632
     31 N          61.7103   89.2726   11.8316 N.am    1  UNL1       -0.2043
     32 H          62.1598   89.0529   10.9837 H       1  UNL1        0.1773
     33 N          62.5000   89.8384   12.9745 N.2     1  UNL1       -0.1745
     34 C          63.6059   90.8168   12.7104 C.2     1  UNL1        0.1531
     35 C          64.0349   91.3202   11.3640 C.2     1  UNL1        0.2688
     36 O          63.4332   90.9337   10.0455 O.2     1  UNL1       -0.2681
     37 N          65.1711   92.2780   11.5678 N.am    1  UNL1       -0.2791
     38 C          65.4445   92.3665   13.0400 C.ar    1  UNL1        0.0522
     39 C          66.4492   93.1528   13.8288 C.ar    1  UNL1        0.0147
     40 C          66.4866   93.0360   15.3237 C.ar    1  UNL1        0.0013
     41 C          65.5192   92.1329   16.0299 C.ar    1  UNL1        0.0001
     42 C          64.5145   91.3466   15.2411 C.ar    1  UNL1        0.0029
     43 C          64.4771   91.4634   13.7462 C.ar    1  UNL1        0.0371
     44 H          65.6529   92.7633   10.8596 H       1  UNL1        0.1552
@<TRIPOS>BOND
     1    29    30    2
     2    30    28    1
     3    28     1    1
     4     1     2    1
     5     2     3   ar
     6     3     4   ar
     7     4     5   ar
     8     5     6    1
     9     5     7   ar
    10     7     8   ar
    11     1     9    1
    12     9    10    2
    13     9    11    2
    14     9    12    1
    15    12    13   ar
    16    13    14   ar
    17    14    15   ar
    18    15    18    1
    19    18    20    1
    20    20    21    1
    21    21    22    1
    22    22    23    1
    23    23    24    1
    24    24    25    1
    25    25    26    1
    26    26    27    1
    27    15    16   ar
    28    16    17   ar
    29    30    31   am
    30    31    33    1
    31    33    34    2
    32    34    35    1
    33    35    36    2
    34    35    37   am
    35    37    38    1
    36    38    39   ar
    37    39    40   ar
    38    40    41   ar
    39    41    42   ar
    40    42    43   ar
    41     8     2   ar
    42    17    12   ar
    43    43    34    1
    44    27    22    1
    45    43    38   ar
    46    18    19    1
    47    31    32    1
    48    37    44    1
@<TRIPOS>MOLECULE
*****
 44 48 0 0 0
SMALL
GASTEIGER

@<TRIPOS>ATOM
      1 N          60.0965   88.1444    9.5311 N.pl3   1  UNL1       -0.1812
      2 C          61.0428   86.9810    9.4983 C.ar    1  UNL1        0.0694
      3 C          61.6562   86.5495    8.1991 C.ar    1  UNL1        0.0170
      4 C          62.6024   85.3862    8.1664 C.ar    1  UNL1        0.0127
      5 C          62.9354   84.6543    9.4326 C.ar    1  UNL1        0.0578
      6 CL         63.8817   83.4909    9.3998 Cl      1  UNL1       -0.0822
      7 C          62.3221   85.0857   10.7318 C.ar    1  UNL1        0.0127
      8 C          61.3758   86.2491   10.7645 C.ar    1  UNL1        0.0170
      9 S          59.8457   88.9426    8.2861 S.O2    1  UNL1        0.0770
     10 O          60.8669   89.9495    8.7260 O.2     1  UNL1       -0.1497
     11 O          58.8245   87.9357    7.8463 O.2     1  UNL1       -0.1497
     12 C          59.5950   89.7408    7.0412 C.ar    1  UNL1        0.1255
     13 C          58.1891   90.0450    6.6157 C.ar    1  UNL1        0.0215
     14 C          57.9382   90.8431    5.3707 C.ar    1  UNL1        0.0157
     15 C          59.0934   91.3371    4.5511 C.ar    1  UNL1        0.0448
     16 C          60.4993   91.0330    4.9765 C.ar    1  UNL1        0.0157
     17 C          60.7500   90.2348    6.2215 C.ar    1  UNL1        0.0215
     18 N          58.8425   92.1353    3.3061 N.pl3   1  UNL1       -0.3315
     19 H          57.9875   92.0439    2.8267 H       1  UNL1        0.1469
     20 C          59.8945   93.0727    2.7915 C.3     1  UNL1        0.1046
     21 C          60.4211   92.9157    1.3957 C.3     1  UNL1        0.0937
     22 N          59.5775   93.3264    0.2254 N.3     1  UNL1       -0.2670
     23 C          59.3399   92.3656   -0.9018 C.3     1  UNL1        0.1047
     24 C          58.4963   92.7763   -2.0721 C.3     1  UNL1        0.1595
     25 O          57.8905   94.1478   -2.1154 O.3     1  UNL1       -0.3508
     26 C          58.1281   95.1086   -0.9882 C.3     1  UNL1        0.1595
     27 C          58.9716   94.6979    0.1821 C.3     1  UNL1        0.1047
     28 C          59.4009   88.5096   10.8089 C.3     1  UNL1        0.2020
     29 O          59.5130   89.3167   13.2759 O.2     1  UNL1       -0.2715
     30 C          60.1898   89.0517   11.9637 C.2     1  UNL1        0.2632
     31 N          61.6556   89.3288   11.8064 N.am    1  UNL1       -0.2043
     32 H          62.0997   89.1548   10.9452 H       1  UNL1        0.1773
     33 N          62.4446   89.8709   12.9613 N.2     1  UNL1       -0.1745
     34 C          63.5702   90.8315   12.7155 C.2     1  UNL1        0.1531
     35 C          64.0205   91.3383   11.3774 C.2     1  UNL1        0.2688
     36 O          63.4242   90.9735   10.0502 O.2     1  UNL1       -0.2681
     37 N          65.1717   92.2739   11.5996 N.am    1  UNL1       -0.2791
     38 C          65.4329   92.3453   13.0750 C.ar    1  UNL1        0.0522
     39 C          66.4441   93.1069   13.8795 C.ar    1  UNL1        0.0147
     40 C          66.4655   92.9770   15.3737 C.ar    1  UNL1        0.0013
     41 C          65.4758   92.0855   16.0634 C.ar    1  UNL1        0.0001
     42 C          64.4645   91.3239   15.2588 C.ar    1  UNL1        0.0029
     43 C          64.4431   91.4538   13.7646 C.ar    1  UNL1        0.0371
     44 H          65.6686   92.7563   10.9000 H       1  UNL1        0.1552
@<TRIPOS>BOND
     1    29    30    2
     2    30    28    1
     3    28     1    1
     4     1     2    1
     5     2     3   ar
     6     3     4   ar
     7     4     5   ar
     8     5     6    1
     9     5     7   ar
    10     7     8   ar
    11     1     9    1
    12     9    10    2
    13     9    11    2
    14     9    12    1
    15    12    13   ar
    16    13    14   ar
    17    14    15   ar
    18    15    18    1
    19    18    20    1
    20    20    21    1
    21    21    22    1
    22    22    23    1
    23    23    24    1
    24    24    25    1
    25    25    26    1
    26    26    27    1
    27    15    16   ar
    28    16    17   ar
    29    30    31   am
    30    31    33    1
    31    33    34    2
    32    34    35    1
    33    35    36    2
    34    35    37   am
    35    37    38    1
    36    38    39   ar
    37    39    40   ar
    38    40    41   ar
    39    41    42   ar
    40    42    43   ar
    41     8     2   ar
    42    17    12   ar
    43    43    34    1
    44    27    22    1
    45    43    38   ar
    46    18    19    1
    47    31    32    1
    48    37    44    1
@<TRIPOS>MOLECULE
*****
 44 48 0 0 0
SMALL
GASTEIGER

@<TRIPOS>ATOM
      1 N          64.7526   91.4383   13.9647 N.pl3   1  UNL1       -0.1812
      2 C          65.8612   92.2738   14.5331 C.ar    1  UNL1        0.0694
      3 C          66.4656   91.9164   15.8587 C.ar    1  UNL1        0.0170
      4 C          67.5742   92.7519   16.4270 C.ar    1  UNL1        0.0127
      5 C          68.0783   93.9447   15.6700 C.ar    1  UNL1        0.0578
      6 CL         69.1868   94.7801   16.2385 Cl      1  UNL1       -0.0822
      7 C          67.4738   94.3021   14.3445 C.ar    1  UNL1        0.0127
      8 C          66.3653   93.4666   13.7761 C.ar    1  UNL1        0.0170
      9 S          64.3771   90.1431   14.6215 S.O2    1  UNL1        0.0770
     10 O          63.0726   90.7421   15.0569 O.2     1  UNL1       -0.1497
     11 O          65.6816   89.5441   14.1859 O.2     1  UNL1       -0.1497
     12 C          64.0016   88.8479   15.2782 C.ar    1  UNL1        0.1255
     13 C          64.4606   87.5472   14.6885 C.ar    1  UNL1        0.0215
     14 C          64.0852   86.2519   15.3452 C.ar    1  UNL1        0.0157
     15 C          63.2508   86.2573   16.5917 C.ar    1  UNL1        0.0448
     16 C          62.7917   87.5579   17.1815 C.ar    1  UNL1        0.0157
     17 C          63.1672   88.8532   16.5247 C.ar    1  UNL1        0.0215
     18 N          62.8754   84.9620   17.2484 N.pl3   1  UNL1       -0.3315
     19 H          62.7128   84.9312   18.2189 H       1  UNL1        0.1469
     20 C          62.7477   83.7137   16.4265 C.3     1  UNL1        0.1046
     21 C          61.9881   83.7417   15.1332 C.3     1  UNL1        0.0937
     22 N          62.3173   82.7591   14.0488 N.3     1  UNL1       -0.2670
     23 C          63.0012   83.2243   12.7975 C.3     1  UNL1        0.1047
     24 C          63.3304   82.2417   11.7130 C.3     1  UNL1        0.1595
     25 O          62.9756   80.7939   11.8798 O.3     1  UNL1       -0.3508
     26 C          62.2916   80.3286   13.1312 C.3     1  UNL1        0.1595
     27 C          61.9625   81.3113   14.2156 C.3     1  UNL1        0.1047
     28 C          64.0196   91.8981   12.7394 C.3     1  UNL1        0.2020
     29 O          63.6881   91.3676   10.2177 O.2     1  UNL1       -0.2715
     30 C          63.6935   90.9205   11.6495 C.2     1  UNL1        0.2632
     31 N          63.3730   89.4956   11.9914 N.am    1  UNL1       -0.2043
     32 H          63.3765   89.2021   12.9312 H       1  UNL1        0.1773
     33 N          63.0469   88.5178   10.9015 N.2     1  UNL1       -0.1745
     34 C          61.6377   88.3926   10.4032 C.2     1  UNL1        0.1531
     35 C          60.4557   89.1739   10.8956 C.2     1  UNL1        0.2688
     36 O          60.4754   90.2176   11.9728 O.2     1  UNL1       -0.2681
     37 N          59.2505   88.7283   10.1216 N.am    1  UNL1       -0.2791
     38 C          59.6877   87.6716    9.1509 C.ar    1  UNL1        0.0522
     39 C          58.9330   86.8715    8.1310 C.ar    1  UNL1        0.0147
     40 C          59.6536   85.8640    7.2851 C.ar    1  UNL1        0.0013
     41 C          61.1290   85.6565    7.4591 C.ar    1  UNL1        0.0001
     42 C          61.8837   86.4566    8.4790 C.ar    1  UNL1        0.0029
     43 C          61.1631   87.4641    9.3249 C.ar    1  UNL1        0.0371
     44 H          58.3336   89.0695   10.2314 H       1  UNL1        0.1552
@<TRIPOS>BOND
     1    29    30    2
     2    30    28    1
     3    28     1    1
     4     1     2    1
     5     2     3   ar
     6     3     4   ar
     7     4     5   ar
     8     5     6    1
     9     5     7   ar
    10     7     8   ar
    11     1     9    1
    12     9    10    2
    13     9    11    2
    14     9    12    1
    15    12    13   ar
    16    13    14   ar
    17    14    15   ar
    18    15    18    1
    19    18    20    1
    20    20    21    1
    21    21    22    1
    22    22    23    1
    23    23    24    1
    24    24    25    1
    25    25    26    1
    26    26    27    1
    27    15    16   ar
    28    16    17   ar
    29    30    31   am
    30    31    33    1
    31    33    34    2
    32    34    35    1
    33    35    36    2
    34    35    37   am
    35    37    38    1
    36    38    39   ar
    37    39    40   ar
    38    40    41   ar
    39    41    42   ar
    40    42    43   ar
    41     8     2   ar
    42    17    12   ar
    43    43    34    1
    44    27    22    1
    45    43    38   ar
    46    18    19    1
    47    31    32    1
    48    37    44    1
@<TRIPOS>MOLECULE
*****
 44 48 0 0 0
SMALL
GASTEIGER

@<TRIPOS>ATOM
      1 N          64.3459   90.8678   14.3501 N.pl3   1  UNL1       -0.1812
      2 C          65.6314   91.5658   14.6827 C.ar    1  UNL1        0.0694
      3 C          66.7304   91.6390   13.6644 C.ar    1  UNL1        0.0170
      4 C          68.0157   92.3369   13.9970 C.ar    1  UNL1        0.0127
      5 C          68.2022   92.9617   15.3479 C.ar    1  UNL1        0.0578
      6 CL         69.4876   93.6596   15.6805 Cl      1  UNL1       -0.0822
      7 C          67.1032   92.8885   16.3663 C.ar    1  UNL1        0.0127
      8 C          65.8179   92.1905   16.0336 C.ar    1  UNL1        0.0170
      9 S          64.1294   89.4482   14.7836 S.O2    1  UNL1        0.0770
     10 O          62.7480   89.8013   15.2496 O.2     1  UNL1       -0.1497
     11 O          65.5108   89.0952   14.3174 O.2     1  UNL1       -0.1497
     12 C          63.9129   88.0287   15.2170 C.ar    1  UNL1        0.1255
     13 C          63.0267   87.7294   16.3896 C.ar    1  UNL1        0.0215
     14 C          62.8101   86.3098   16.8231 C.ar    1  UNL1        0.0157
     15 C          63.4798   85.1895   16.0839 C.ar    1  UNL1        0.0448
     16 C          64.3660   85.4887   14.9113 C.ar    1  UNL1        0.0157
     17 C          64.5826   86.9084   14.4778 C.ar    1  UNL1        0.0215
     18 N          63.2633   83.7699   16.5174 N.pl3   1  UNL1       -0.3315
     19 H          63.0689   83.5676   17.4610 H       1  UNL1        0.1469
     20 C          63.3430   82.6585   15.5130 C.3     1  UNL1        0.1046
     21 C          62.3789   82.6150   14.3646 C.3     1  UNL1        0.0937
     22 N          62.8815   82.3713   12.9724 N.3     1  UNL1       -0.2670
     23 C          63.6634   83.4351   12.2604 C.3     1  UNL1        0.1047
     24 C          64.1660   83.1914   10.8683 C.3     1  UNL1        0.1595
     25 O          63.8866   81.8839   10.1882 O.3     1  UNL1       -0.3508
     26 C          63.1047   80.8202   10.9002 C.3     1  UNL1        0.1595
     27 C          62.6021   81.0639   12.2924 C.3     1  UNL1        0.1047
     28 C          63.2771   91.5895   13.5841 C.3     1  UNL1        0.2020
     29 O          63.5268   91.0143   11.0628 O.2     1  UNL1       -0.2715
     30 C          62.7203   90.9893   12.3272 C.2     1  UNL1        0.2632
     31 N          61.3568   90.3642   12.3349 N.am    1  UNL1       -0.2043
     32 H          60.8274   90.3478   13.1648 H       1  UNL1        0.1773
     33 N          60.7998   89.7639   11.0780 N.2     1  UNL1       -0.1745
     34 C          61.2738   88.4180   10.6156 C.2     1  UNL1        0.1531
     35 C          62.2942   87.5590   11.3018 C.2     1  UNL1        0.2688
     36 O          63.0196   87.8950   12.5710 O.2     1  UNL1       -0.2681
     37 N          62.4617   86.3049   10.4961 N.am    1  UNL1       -0.2791
     38 C          61.5449   86.3889    9.3118 C.ar    1  UNL1        0.0522
     39 C          61.2837   85.4450    8.1757 C.ar    1  UNL1        0.0147
     40 C          60.2884   85.8070    7.1136 C.ar    1  UNL1        0.0013
     41 C          59.5543   87.1130    7.1874 C.ar    1  UNL1        0.0001
     42 C          59.8154   88.0569    8.3235 C.ar    1  UNL1        0.0029
     43 C          60.8107   87.6949    9.3857 C.ar    1  UNL1        0.0371
     44 H          63.0670   85.5579   10.7074 H       1  UNL1        0.1552
@<TRIPOS>BOND
     1    29    30    2
     2    30    28    1
     3    28     1    1
     4     1     2    1
     5     2     3   ar
     6     3     4   ar
     7     4     5   ar
     8     5     6    1
     9     5     7   ar
    10     7     8   ar
    11     1     9    1
    12     9    10    2
    13     9    11    2
    14     9    12    1
    15    12    13   ar
    16    13    14   ar
    17    14    15   ar
    18    15    18    1
    19    18    20    1
    20    20    21    1
    21    21    22    1
    22    22    23    1
    23    23    24    1
    24    24    25    1
    25    25    26    1
    26    26    27    1
    27    15    16   ar
    28    16    17   ar
    29    30    31   am
    30    31    33    1
    31    33    34    2
    32    34    35    1
    33    35    36    2
    34    35    37   am
    35    37    38    1
    36    38    39   ar
    37    39    40   ar
    38    40    41   ar
    39    41    42   ar
    40    42    43   ar
    41     8     2   ar
    42    17    12   ar
    43    43    34    1
    44    27    22    1
    45    43    38   ar
    46    18    19    1
    47    31    32    1
    48    37    44    1
@<TRIPOS>MOLECULE
*****
 44 48 0 0 0
SMALL
GASTEIGER

@<TRIPOS>ATOM
      1 N          61.2041   88.6886   10.2153 N.pl3   1  UNL1       -0.1812
      2 C          60.4560   89.0126    8.9560 C.ar    1  UNL1        0.0694
      3 C          60.6512   90.3417    8.2887 C.ar    1  UNL1        0.0170
      4 C          59.9032   90.6656    7.0295 C.ar    1  UNL1        0.0127
      5 C          58.9600   89.6605    6.4377 C.ar    1  UNL1        0.0578
      6 CL         58.2121   89.9844    5.1786 Cl      1  UNL1       -0.0822
      7 C          58.7649   88.3313    7.1051 C.ar    1  UNL1        0.0127
      8 C          59.5129   88.0075    8.3643 C.ar    1  UNL1        0.0170
      9 S          61.7040   87.2945   10.4531 S.O2    1  UNL1        0.0770
     10 O          60.7505   87.1485   11.6018 O.2     1  UNL1       -0.1497
     11 O          62.6575   87.4405    9.3043 O.2     1  UNL1       -0.1497
     12 C          62.2039   85.9004   10.6908 C.ar    1  UNL1        0.1255
     13 C          62.9749   85.1873    9.6198 C.ar    1  UNL1        0.0215
     14 C          63.4749   83.7932    9.8574 C.ar    1  UNL1        0.0157
     15 C          63.2038   83.1122   11.1662 C.ar    1  UNL1        0.0448
     16 C          62.4329   83.8252   12.2373 C.ar    1  UNL1        0.0157
     17 C          61.9329   85.2194   11.9995 C.ar    1  UNL1        0.0215
     18 N          63.7038   81.7181   11.4039 N.pl3   1  UNL1       -0.3315
     19 H          64.1452   81.2227   10.6765 H       1  UNL1        0.1469
     20 C          63.5313   81.0786   12.7498 C.3     1  UNL1        0.1046
     21 C          64.3110   81.5859   13.9266 C.3     1  UNL1        0.0937
     22 N          64.0025   82.9349   14.5055 N.3     1  UNL1       -0.2670
     23 C          64.9575   84.0738   14.3036 C.3     1  UNL1        0.1047
     24 C          64.6490   85.4228   14.8824 C.3     1  UNL1        0.1595
     25 O          63.3856   85.6328   15.6631 O.3     1  UNL1       -0.3508
     26 C          62.4306   84.4939   15.8650 C.3     1  UNL1        0.1595
     27 C          62.7390   83.1449   15.2862 C.3     1  UNL1        0.1047
     28 C          61.4522   89.7587   11.2367 C.3     1  UNL1        0.2020
     29 O          63.4567   91.1496   10.3437 O.2     1  UNL1       -0.2715
     30 C          62.8336   90.3131   11.4217 C.2     1  UNL1        0.2632
     31 N          63.5920   90.0308   12.6847 N.am    1  UNL1       -0.2043
     32 H          63.1831   89.4817   13.3922 H       1  UNL1        0.1773
     33 N          64.9736   90.5851   12.8697 N.2     1  UNL1       -0.1745
     34 C          65.3414   91.2696   14.1528 C.2     1  UNL1        0.1531
     35 C          64.4389   91.4738   15.3333 C.2     1  UNL1        0.2688
     36 O          63.0101   91.0294   15.4382 O.2     1  UNL1       -0.2681
     37 N          65.2161   92.2005   16.3907 N.am    1  UNL1       -0.2791
     38 C          66.5989   92.4453   15.8636 C.ar    1  UNL1        0.0522
     39 C          67.7975   93.1178   16.4644 C.ar    1  UNL1        0.0147
     40 C          69.0736   93.2150   15.6820 C.ar    1  UNL1        0.0013
     41 C          69.1511   92.6397   14.2989 C.ar    1  UNL1        0.0001
     42 C          67.9525   91.9672   13.6981 C.ar    1  UNL1        0.0029
     43 C          66.6764   91.8700   14.4805 C.ar    1  UNL1        0.0371
     44 H          64.8779   92.4695   17.2753 H       1  UNL1        0.1552
@<TRIPOS>BOND
     1    29    30    2
     2    30    28    1
     3    28     1    1
     4     1     2    1
     5     2     3   ar
     6     3     4   ar
     7     4     5   ar
     8     5     6    1
     9     5     7   ar
    10     7     8   ar
    11     1     9    1
    12     9    10    2
    13     9    11    2
    14     9    12    1
    15    12    13   ar
    16    13    14   ar
    17    14    15   ar
    18    15    18    1
    19    18    20    1
    20    20    21    1
    21    21    22    1
    22    22    23    1
    23    23    24    1
    24    24    25    1
    25    25    26    1
    26    26    27    1
    27    15    16   ar
    28    16    17   ar
    29    30    31   am
    30    31    33    1
    31    33    34    2
    32    34    35    1
    33    35    36    2
    34    35    37   am
    35    37    38    1
    36    38    39   ar
    37    39    40   ar
    38    40    41   ar
    39    41    42   ar
    40    42    43   ar
    41     8     2   ar
    42    17    12   ar
    43    43    34    1
    44    27    22    1
    45    43    38   ar
    46    18    19    1
    47    31    32    1
    48    37    44    1
@<TRIPOS>MOLECULE
*****
 44 48 0 0 0
SMALL
GASTEIGER

@<TRIPOS>ATOM
      1 N          59.7557   89.0814    7.4592 N.pl3   1  UNL1       -0.1812
      2 C          59.6097   90.0539    6.3264 C.ar    1  UNL1        0.0694
      3 C          58.2580   90.6038    5.9796 C.ar    1  UNL1        0.0170
      4 C          58.1121   91.5763    4.8469 C.ar    1  UNL1        0.0127
      5 C          59.3179   91.9988    4.0611 C.ar    1  UNL1        0.0578
      6 CL         59.1719   92.9712    2.9284 Cl      1  UNL1       -0.0822
      7 C          60.6696   91.4488    4.4079 C.ar    1  UNL1        0.0127
      8 C          60.8155   90.4764    5.5406 C.ar    1  UNL1        0.0170
      9 S          60.4382   89.5031    8.7266 S.O2    1  UNL1        0.0770
     10 O          59.3768   88.8103    9.5287 O.2     1  UNL1       -0.1497
     11 O          61.4996   90.1960    7.9243 O.2     1  UNL1       -0.1497
     12 C          61.1208   89.9249    9.9938 C.ar    1  UNL1        0.1255
     13 C          60.3606   89.9372   11.2870 C.ar    1  UNL1        0.0215
     14 C          61.0431   90.3590   12.5543 C.ar    1  UNL1        0.0157
     15 C          62.4859   90.7685   12.5286 C.ar    1  UNL1        0.0448
     16 C          63.2461   90.7563   11.2356 C.ar    1  UNL1        0.0157
     17 C          62.5635   90.3345    9.9682 C.ar    1  UNL1        0.0215
     18 N          63.1684   91.1903   13.7960 N.pl3   1  UNL1       -0.3315
     19 H          62.8957   92.0207   14.2491 H       1  UNL1        0.1469
     20 C          64.2665   90.3469   14.3730 C.3     1  UNL1        0.1046
     21 C          64.2843   88.8674   14.1262 C.3     1  UNL1        0.0937
     22 N          63.9057   87.9192   15.2251 N.3     1  UNL1       -0.2670
     23 C          64.2383   86.4614   15.1056 C.3     1  UNL1        0.1047
     24 C          63.8597   85.5132   16.2045 C.3     1  UNL1        0.1595
     25 O          63.1484   86.0228   17.4229 O.3     1  UNL1       -0.3508
     26 C          62.8157   87.4806   17.5423 C.3     1  UNL1        0.1595
     27 C          63.1944   88.4287   16.4434 C.3     1  UNL1        0.1047
     28 C          59.2191   87.6871    7.3245 C.3     1  UNL1        0.2020
     29 O          59.8422   85.1818    7.0325 O.2     1  UNL1       -0.2715
     30 C          60.0830   86.5135    7.6795 C.2     1  UNL1        0.2632
     31 N          61.1879   86.6716    8.6817 N.am    1  UNL1       -0.2043
     32 H          61.3460   87.5456    9.1064 H       1  UNL1        0.1773
     33 N          62.0520   85.4979    9.0368 N.2     1  UNL1       -0.1745
     34 C          62.2631   85.1301   10.4756 C.2     1  UNL1        0.1531
     35 C          61.6785   85.8384   11.6616 C.2     1  UNL1        0.2688
     36 O          60.7803   87.0389   11.6171 O.2     1  UNL1       -0.2681
     37 N          62.1499   85.1353   12.9000 N.am    1  UNL1       -0.2791
     38 C          63.0258   83.9926   12.4793 C.ar    1  UNL1        0.0522
     39 C          63.7687   82.9545   13.2671 C.ar    1  UNL1        0.0147
     40 C          64.5815   81.9133   12.5564 C.ar    1  UNL1        0.0013
     41 C          64.6515   81.9100   11.0581 C.ar    1  UNL1        0.0001
     42 C          63.9086   82.9480   10.2703 C.ar    1  UNL1        0.0029
     43 C          63.0957   83.9893   10.9810 C.ar    1  UNL1        0.0371
     44 H          61.9241   85.3808   13.8262 H       1  UNL1        0.1552
@<TRIPOS>BOND
     1    29    30    2
     2    30    28    1
     3    28     1    1
     4     1     2    1
     5     2     3   ar
     6     3     4   ar
     7     4     5   ar
     8     5     6    1
     9     5     7   ar
    10     7     8   ar
    11     1     9    1
    12     9    10    2
    13     9    11    2
    14     9    12    1
    15    12    13   ar
    16    13    14   ar
    17    14    15   ar
    18    15    18    1
    19    18    20    1
    20    20    21    1
    21    21    22    1
    22    22    23    1
    23    23    24    1
    24    24    25    1
    25    25    26    1
    26    26    27    1
    27    15    16   ar
    28    16    17   ar
    29    30    31   am
    30    31    33    1
    31    33    34    2
    32    34    35    1
    33    35    36    2
    34    35    37   am
    35    37    38    1
    36    38    39   ar
    37    39    40   ar
    38    40    41   ar
    39    41    42   ar
    40    42    43   ar
    41     8     2   ar
    42    17    12   ar
    43    43    34    1
    44    27    22    1
    45    43    38   ar
    46    18    19    1
    47    31    32    1
    48    37    44    1
@<TRIPOS>MOLECULE
*****
 44 48 0 0 0
SMALL
GASTEIGER

@<TRIPOS>ATOM
      1 N          59.7257   89.1526    7.7308 N.pl3   1  UNL1       -0.1812
      2 C          59.5948   90.0390    6.5277 C.ar    1  UNL1        0.0694
      3 C          60.8183   90.4551    5.7660 C.ar    1  UNL1        0.0170
      4 C          60.6873   91.3415    4.5631 C.ar    1  UNL1        0.0127
      5 C          59.3330   91.8117    4.1218 C.ar    1  UNL1        0.0578
      6 CL         59.2022   92.6981    2.9188 Cl      1  UNL1       -0.0822
      7 C          58.1096   91.3956    4.8834 C.ar    1  UNL1        0.0127
      8 C          58.2406   90.5093    6.0864 C.ar    1  UNL1        0.0170
      9 S          60.5538   89.5939    8.9010 S.O2    1  UNL1        0.0770
     10 O          61.6693   88.6985    8.4494 O.2     1  UNL1       -0.1497
     11 O          59.4382   90.4893    9.3526 O.2     1  UNL1       -0.1497
     12 C          61.3817   90.0353   10.0713 C.ar    1  UNL1        0.1255
     13 C          62.8091   90.4486    9.8668 C.ar    1  UNL1        0.0215
     14 C          63.6372   90.8900   11.0371 C.ar    1  UNL1        0.0157
     15 C          63.0378   90.9181   12.4119 C.ar    1  UNL1        0.0448
     16 C          61.6105   90.5048   12.6164 C.ar    1  UNL1        0.0157
     17 C          60.7824   90.0634   11.4461 C.ar    1  UNL1        0.0215
     18 N          63.8658   91.3595   13.5821 N.pl3   1  UNL1       -0.3315
     19 H          63.4345   91.5502   14.4463 H       1  UNL1        0.1469
     20 C          65.3511   91.5104   13.4356 C.3     1  UNL1        0.1046
     21 C          65.9593   92.8775   13.3305 C.3     1  UNL1        0.0937
     22 N          66.4536   93.3786   12.0059 N.3     1  UNL1       -0.2670
     23 C          66.2631   94.8182   11.6301 C.3     1  UNL1        0.1047
     24 C          66.7573   95.3193   10.3055 C.3     1  UNL1        0.1595
     25 O          67.4421   94.3808    9.3567 O.3     1  UNL1       -0.3508
     26 C          67.6327   92.9412    9.7326 C.3     1  UNL1        0.1595
     27 C          67.1384   92.4401   11.0572 C.3     1  UNL1        0.1047
     28 C          59.0286   87.8248    7.7635 C.3     1  UNL1        0.2020
     29 O          59.8344   85.4639    7.0377 O.2     1  UNL1       -0.2715
     30 C          59.8086   86.5750    8.0451 C.2     1  UNL1        0.2632
     31 N          60.5629   86.4362    9.3341 N.am    1  UNL1       -0.2043
     32 H          60.5460   87.1654    9.9953 H       1  UNL1        0.1773
     33 N          61.3431   85.1863    9.6158 N.2     1  UNL1       -0.1745
     34 C          62.1117   85.0547   10.8972 C.2     1  UNL1        0.1531
     35 C          62.1939   86.0835   11.9857 C.2     1  UNL1        0.2688
     36 O          61.5217   87.4245   11.9840 O.2     1  UNL1       -0.2681
     37 N          63.0661   85.5358   13.0762 N.am    1  UNL1       -0.2791
     38 C          63.5231   84.1686   12.6616 C.ar    1  UNL1        0.0522
     39 C          64.4001   83.1560   13.3365 C.ar    1  UNL1        0.0147
     40 C          64.6872   81.8460   12.6646 C.ar    1  UNL1        0.0013
     41 C          64.0974   81.5486   11.3179 C.ar    1  UNL1        0.0001
     42 C          63.2204   82.5612   10.6430 C.ar    1  UNL1        0.0029
     43 C          62.9333   83.8712   11.3149 C.ar    1  UNL1        0.0371
     44 H          63.2980   85.9934   13.9165 H       1  UNL1        0.1552
@<TRIPOS>BOND
     1    29    30    2
     2    30    28    1
     3    28     1    1
     4     1     2    1
     5     2     3   ar
     6     3     4   ar
     7     4     5   ar
     8     5     6    1
     9     5     7   ar
    10     7     8   ar
    11     1     9    1
    12     9    10    2
    13     9    11    2
    14     9    12    1
    15    12    13   ar
    16    13    14   ar
    17    14    15   ar
    18    15    18    1
    19    18    20    1
    20    20    21    1
    21    21    22    1
    22    22    23    1
    23    23    24    1
    24    24    25    1
    25    25    26    1
    26    26    27    1
    27    15    16   ar
    28    16    17   ar
    29    30    31   am
    30    31    33    1
    31    33    34    2
    32    34    35    1
    33    35    36    2
    34    35    37   am
    35    37    38    1
    36    38    39   ar
    37    39    40   ar
    38    40    41   ar
    39    41    42   ar
    40    42    43   ar
    41     8     2   ar
    42    17    12   ar
    43    43    34    1
    44    27    22    1
    45    43    38   ar
    46    18    19    1
    47    31    32    1
    48    37    44    1
@<TRIPOS>MOLECULE
*****
 44 48 0 0 0
SMALL
GASTEIGER

@<TRIPOS>ATOM
      1 N          60.9039   88.6405   10.2528 N.pl3   1  UNL1       -0.1812
      2 C          60.2983   89.0040    8.9294 C.ar    1  UNL1        0.0694
      3 C          59.3605   88.0527    8.2471 C.ar    1  UNL1        0.0170
      4 C          58.7550   88.4163    6.9238 C.ar    1  UNL1        0.0127
      5 C          59.0872   89.7311    6.2829 C.ar    1  UNL1        0.0578
      6 CL         58.4817   90.0946    4.9595 Cl      1  UNL1       -0.0822
      7 C          60.0250   90.6824    6.9652 C.ar    1  UNL1        0.0127
      8 C          60.6305   90.3188    8.2885 C.ar    1  UNL1        0.0170
      9 S          61.5090   87.2826   10.4531 S.O2    1  UNL1        0.0770
     10 O          60.5058   86.9944   11.5303 O.2     1  UNL1       -0.1497
     11 O          62.5122   87.5710    9.3758 O.2     1  UNL1       -0.1497
     12 C          62.1142   85.9249   10.6532 C.ar    1  UNL1        0.1255
     13 C          61.9280   85.2054   11.9562 C.ar    1  UNL1        0.0215
     14 C          62.5332   83.8476   12.1565 C.ar    1  UNL1        0.0157
     15 C          63.3245   83.2092   11.0536 C.ar    1  UNL1        0.0448
     16 C          63.5108   83.9286    9.7506 C.ar    1  UNL1        0.0157
     17 C          62.9055   85.2864    9.5504 C.ar    1  UNL1        0.0215
     18 N          63.9297   81.8514   11.2539 N.pl3   1  UNL1       -0.3315
     19 H          64.4945   81.4557   10.5512 H       1  UNL1        0.1469
     20 C          63.6743   81.0964   12.5247 C.3     1  UNL1        0.1046
     21 C          64.3409   81.5247   13.7984 C.3     1  UNL1        0.0937
     22 N          64.0065   82.8529   14.4100 N.3     1  UNL1       -0.2670
     23 C          64.9641   84.0003   14.2814 C.3     1  UNL1        0.1047
     24 C          64.6296   85.3285   14.8930 C.3     1  UNL1        0.1595
     25 O          63.3375   85.5093   15.6332 O.3     1  UNL1       -0.3508
     26 C          62.3799   84.3619   15.7617 C.3     1  UNL1        0.1595
     27 C          62.7144   83.0337   15.1501 C.3     1  UNL1        0.1047
     28 C          60.9042   89.6348   11.3759 C.3     1  UNL1        0.2020
     29 O          62.9732   88.5772   12.5382 O.2     1  UNL1       -0.2715
     30 C          62.1114   89.7719   12.2557 C.2     1  UNL1        0.2632
     31 N          62.4567   91.1039   12.8528 N.am    1  UNL1       -0.2043
     32 H          61.8910   91.8881   12.6674 H       1  UNL1        0.1773
     33 N          63.6639   91.2411   13.7327 N.2     1  UNL1       -0.1745
     34 C          64.9752   91.6715   13.1450 C.2     1  UNL1        0.1531
     35 C          65.2307   91.9973   11.7033 C.2     1  UNL1        0.2688
     36 O          64.2199   91.9500   10.5961 O.2     1  UNL1       -0.2681
     37 N          66.6746   92.3788   11.5633 N.am    1  UNL1       -0.2791
     38 C          67.3114   92.2888   12.9184 C.ar    1  UNL1        0.0522
     39 C          68.7120   92.5484   13.3884 C.ar    1  UNL1        0.0147
     40 C          69.0622   92.3708   14.8361 C.ar    1  UNL1        0.0013
     41 C          68.0119   91.9337   15.8137 C.ar    1  UNL1        0.0001
     42 C          66.6113   91.6741   15.3437 C.ar    1  UNL1        0.0029
     43 C          66.2611   91.8517   13.8960 C.ar    1  UNL1        0.0371
     44 H          67.1252   92.6421   10.7285 H       1  UNL1        0.1552
@<TRIPOS>BOND
     1    29    30    2
     2    30    28    1
     3    28     1    1
     4     1     2    1
     5     2     3   ar
     6     3     4   ar
     7     4     5   ar
     8     5     6    1
     9     5     7   ar
    10     7     8   ar
    11     1     9    1
    12     9    10    2
    13     9    11    2
    14     9    12    1
    15    12    13   ar
    16    13    14   ar
    17    14    15   ar
    18    15    18    1
    19    18    20    1
    20    20    21    1
    21    21    22    1
    22    22    23    1
    23    23    24    1
    24    24    25    1
    25    25    26    1
    26    26    27    1
    27    15    16   ar
    28    16    17   ar
    29    30    31   am
    30    31    33    1
    31    33    34    2
    32    34    35    1
    33    35    36    2
    34    35    37   am
    35    37    38    1
    36    38    39   ar
    37    39    40   ar
    38    40    41   ar
    39    41    42   ar
    40    42    43   ar
    41     8     2   ar
    42    17    12   ar
    43    43    34    1
    44    27    22    1
    45    43    38   ar
    46    18    19    1
    47    31    32    1
    48    37    44    1
