@<TRIPOS>MOLECULE
*****
 24 26 0 0 0
SMALL
GASTEIGER

@<TRIPOS>ATOM
      1 S          60.4717   89.6720   11.2255 S.O     1  UNL1        0.0985
      2 O          59.5798   90.6909   10.5804 O.co2   1  UNL1       -0.6751
      3 C          66.0664   91.9550   13.4819 C.2     1  UNL1        0.1223
      4 C          65.7506   91.0760   14.6556 C.2     1  UNL1        0.0343
      5 C          64.4903   90.2627   14.6660 C.2     1  UNL1        0.0233
      6 C          63.5457   90.3284   13.5026 C.2     1  UNL1        0.1014
      7 N          62.2375   89.6463   13.2321 N.2     1  UNL1       -0.1811
      8 C          61.7447   90.1036   11.8912 C.2     1  UNL1        0.3556
      9 N          62.7484   91.0684   11.3330 N.2     1  UNL1       -0.1847
     10 C          63.8615   91.2073   12.3289 C.2     1  UNL1        0.0901
     11 C          65.1219   92.0206   12.3185 C.3     1  UNL1        0.1113
     12 C          68.2744   92.6978   14.6321 C.3     1  UNL1        0.2520
     13 O          67.3267   92.7683   13.4716 O.2     1  UNL1       -0.4753
     14 C          60.0906   88.2213   11.2050 C.3     1  UNL1        0.3094
     15 C          60.5085   87.3523   10.0561 C.ar    1  UNL1        0.1175
     16 N          59.6612   87.2842    8.8202 N.ar    1  UNL1       -0.2435
     17 C          60.0791   86.4152    7.6713 C.ar    1  UNL1        0.0973
     18 C          61.3444   85.6141    7.7582 C.ar    1  UNL1        0.0309
     19 C          61.7623   84.7451    6.6093 C.3     1  UNL1        0.0358
     20 C          62.1917   85.6822    8.9941 C.ar    1  UNL1        0.1335
     21 C          61.7737   86.5513   10.1431 C.ar    1  UNL1        0.0304
     22 C          62.6210   86.6194   11.3789 C.3     1  UNL1        0.0356
     23 O          63.4569   84.8812    9.0811 O.3     1  UNL1       -0.4720
     24 C          63.5067   83.6479    9.9334 C.3     1  UNL1        0.2524
@<TRIPOS>UNITY_ATOM_ATTR
1 1
charge 1
2 1
charge -1
@<TRIPOS>BOND
     1    12    13    1
     2    13     3    1
     3     3     4    2
     4     4     5    1
     5     5     6    2
     6     6     7    1
     7     7     8    2
     8     8     1    1
     9     1     2    2
    10     1    14    1
    11    14    15    1
    12    15    16   ar
    13    16    17   ar
    14    17    18   ar
    15    18    19    1
    16    18    20   ar
    17    20    23    1
    18    23    24    1
    19    20    21   ar
    20    21    22    1
    21     8     9    1
    22     9    10    2
    23    10    11    1
    24    11     3    1
    25    10     6    1
    26    21    15   ar
@<TRIPOS>MOLECULE
*****
 24 26 0 0 0
SMALL
GASTEIGER

@<TRIPOS>ATOM
      1 S          60.5605   89.5667   11.0524 S.O     1  UNL1        0.0985
      2 O          59.7708   90.5346   10.2220 O.co2   1  UNL1       -0.6751
      3 C          66.0353   91.9785   13.4638 C.2     1  UNL1        0.1223
      4 C          65.7493   91.0328   14.5924 C.2     1  UNL1        0.0343
      5 C          64.5252   90.1667   14.5533 C.2     1  UNL1        0.0233
      6 C          63.5871   90.2464   13.3856 C.2     1  UNL1        0.1014
      7 N          62.3114   89.5224   13.0717 N.2     1  UNL1       -0.1811
      8 C          61.8090   90.0207   11.7491 C.2     1  UNL1        0.3556
      9 N          62.7741   91.0527   11.2456 N.2     1  UNL1       -0.1847
     10 C          63.8730   91.1922   12.2570 C.2     1  UNL1        0.0901
     11 C          65.0971   92.0582   12.2961 C.3     1  UNL1        0.1113
     12 C          68.0682   92.9435   14.7622 C.3     1  UNL1        0.2520
     13 O          67.2594   92.8446   13.5029 O.2     1  UNL1       -0.4753
     14 C          60.1019   88.1448   11.1861 C.3     1  UNL1        0.3094
     15 C          61.0368   87.0206   10.8515 C.ar    1  UNL1        0.1175
     16 N          61.6393   86.1944   11.9489 N.ar    1  UNL1       -0.2435
     17 C          62.5742   85.0701   11.6143 C.ar    1  UNL1        0.0973
     18 C          62.9067   84.7721   10.1822 C.ar    1  UNL1        0.0309
     19 C          63.8416   83.6479    9.8476 C.3     1  UNL1        0.0358
     20 C          62.3042   85.5983    9.0848 C.ar    1  UNL1        0.1335
     21 C          61.3692   86.7226    9.4195 C.ar    1  UNL1        0.0304
     22 C          60.7667   87.5489    8.3221 C.3     1  UNL1        0.0356
     23 O          62.6366   85.3003    7.6528 O.3     1  UNL1       -0.4720
     24 C          61.6071   84.6762    6.7581 C.3     1  UNL1        0.2524
@<TRIPOS>UNITY_ATOM_ATTR
1 1
charge 1
2 1
charge -1
@<TRIPOS>BOND
     1    12    13    1
     2    13     3    1
     3     3     4    2
     4     4     5    1
     5     5     6    2
     6     6     7    1
     7     7     8    2
     8     8     1    1
     9     1     2    2
    10     1    14    1
    11    14    15    1
    12    15    16   ar
    13    16    17   ar
    14    17    18   ar
    15    18    19    1
    16    18    20   ar
    17    20    23    1
    18    23    24    1
    19    20    21   ar
    20    21    22    1
    21     8     9    1
    22     9    10    2
    23    10    11    1
    24    11     3    1
    25    10     6    1
    26    21    15   ar
@<TRIPOS>MOLECULE
*****
 24 26 0 0 0
SMALL
GASTEIGER

@<TRIPOS>ATOM
      1 S          61.0241   88.8029   10.2622 S.O     1  UNL1        0.0985
      2 O          60.4733   89.2243    8.9322 O.co2   1  UNL1       -0.6751
      3 C          63.4467   82.9928   11.6691 C.2     1  UNL1        0.1223
      4 C          63.8568   83.0081   10.2264 C.2     1  UNL1        0.0343
      5 C          63.5291   84.1923    9.3660 C.2     1  UNL1        0.0233
      6 C          62.7912   85.3612    9.9483 C.2     1  UNL1        0.1014
      7 N          62.3328   86.6580    9.3499 N.2     1  UNL1       -0.1811
      8 C          61.6394   87.4442   10.4227 C.2     1  UNL1        0.3556
      9 N          61.6692   86.6333   11.6843 N.2     1  UNL1       -0.1847
     10 C          62.3811   85.3459   11.3911 C.2     1  UNL1        0.0901
     11 C          62.7088   84.1618   12.2515 C.3     1  UNL1        0.1113
     12 C          62.7130   80.7988   12.8514 C.3     1  UNL1        0.2520
     13 O          63.7744   81.8086   12.5295 O.2     1  UNL1       -0.4753
     14 C          60.9598   89.7400   11.4317 C.3     1  UNL1        0.3094
     15 C          62.2144   90.1111   12.1653 C.ar    1  UNL1        0.1175
     16 N          62.4095   89.6733   13.5866 N.ar    1  UNL1       -0.2435
     17 C          63.6640   90.0444   14.3202 C.ar    1  UNL1        0.0973
     18 C          64.7236   90.8534   13.6325 C.ar    1  UNL1        0.0309
     19 C          65.9782   91.2245   14.3661 C.3     1  UNL1        0.0358
     20 C          64.5286   91.2912   12.2111 C.ar    1  UNL1        0.1335
     21 C          63.2739   90.9200   11.4775 C.ar    1  UNL1        0.0304
     22 C          63.0788   91.3578   10.0561 C.3     1  UNL1        0.0356
     23 O          65.5881   92.1000   11.5233 O.3     1  UNL1       -0.4720
     24 C          65.7076   93.5695   11.7999 C.3     1  UNL1        0.2524
@<TRIPOS>UNITY_ATOM_ATTR
1 1
charge 1
2 1
charge -1
@<TRIPOS>BOND
     1    12    13    1
     2    13     3    1
     3     3     4    2
     4     4     5    1
     5     5     6    2
     6     6     7    1
     7     7     8    2
     8     8     1    1
     9     1     2    2
    10     1    14    1
    11    14    15    1
    12    15    16   ar
    13    16    17   ar
    14    17    18   ar
    15    18    19    1
    16    18    20   ar
    17    20    23    1
    18    23    24    1
    19    20    21   ar
    20    21    22    1
    21     8     9    1
    22     9    10    2
    23    10    11    1
    24    11     3    1
    25    10     6    1
    26    21    15   ar
@<TRIPOS>MOLECULE
*****
 24 26 0 0 0
SMALL
GASTEIGER

@<TRIPOS>ATOM
      1 S          62.3162   88.1218   11.1720 S.O     1  UNL1        0.0985
      2 O          62.2447   88.0719    9.6745 O.co2   1  UNL1       -0.6751
      3 C          63.3704   82.4213   13.9999 C.2     1  UNL1        0.1223
      4 C          64.1547   83.2476   14.9755 C.2     1  UNL1        0.0343
      5 C          64.2536   84.7330   14.7910 C.2     1  UNL1        0.0233
      6 C          63.5682   85.3919   13.6309 C.2     1  UNL1        0.1014
      7 N          63.4884   86.8246   13.1940 N.2     1  UNL1       -0.1811
      8 C          62.6549   86.8837   11.9483 C.2     1  UNL1        0.3556
      9 N          62.2194   85.4875   11.6153 N.2     1  UNL1       -0.1847
     10 C          62.7839   84.5655   12.6552 C.2     1  UNL1        0.0901
     11 C          62.6850   83.0802   12.8397 C.3     1  UNL1        0.1113
     12 C          62.2755   80.1459   13.3883 C.3     1  UNL1        0.2520
     13 O          63.2715   80.9359   14.1844 O.2     1  UNL1       -0.4753
     14 C          62.0491   89.4096   11.8931 C.3     1  UNL1        0.3094
     15 C          63.1935   90.2400   12.3940 C.ar    1  UNL1        0.1175
     16 N          63.7124   90.0393   13.7870 N.ar    1  UNL1       -0.2435
     17 C          64.8568   90.8696   14.2879 C.ar    1  UNL1        0.0973
     18 C          65.4822   91.9008   13.3959 C.ar    1  UNL1        0.0309
     19 C          66.6265   92.7311   13.8968 C.3     1  UNL1        0.0358
     20 C          64.9632   92.1015   12.0029 C.ar    1  UNL1        0.1335
     21 C          63.8188   91.2711   11.5020 C.ar    1  UNL1        0.0304
     22 C          63.2998   91.4718   10.1090 C.3     1  UNL1        0.0356
     23 O          65.5886   93.1325   11.1108 O.3     1  UNL1       -0.4720
     24 C          66.8222   92.7967   10.3263 C.3     1  UNL1        0.2524
@<TRIPOS>UNITY_ATOM_ATTR
1 1
charge 1
2 1
charge -1
@<TRIPOS>BOND
     1    12    13    1
     2    13     3    1
     3     3     4    2
     4     4     5    1
     5     5     6    2
     6     6     7    1
     7     7     8    2
     8     8     1    1
     9     1     2    2
    10     1    14    1
    11    14    15    1
    12    15    16   ar
    13    16    17   ar
    14    17    18   ar
    15    18    19    1
    16    18    20   ar
    17    20    23    1
    18    23    24    1
    19    20    21   ar
    20    21    22    1
    21     8     9    1
    22     9    10    2
    23    10    11    1
    24    11     3    1
    25    10     6    1
    26    21    15   ar
@<TRIPOS>MOLECULE
*****
 24 26 0 0 0
SMALL
GASTEIGER

@<TRIPOS>ATOM
      1 S          61.5470   88.1127   11.2293 S.O     1  UNL1        0.0985
      2 O          60.0840   88.3200   11.4874 O.co2   1  UNL1       -0.6751
      3 C          65.7726   92.7591   12.6988 C.2     1  UNL1        0.1223
      4 C          65.8523   92.0306   14.0075 C.2     1  UNL1        0.0343
      5 C          65.0273   90.7980   14.2313 C.2     1  UNL1        0.0233
      6 C          64.1225   90.2940   13.1463 C.2     1  UNL1        0.1014
      7 N          63.1973   89.1153   13.0777 N.2     1  UNL1       -0.1811
      8 C          62.5457   89.1154   11.7266 C.2     1  UNL1        0.3556
      9 N          63.0683   90.2941   10.9601 N.2     1  UNL1       -0.1847
     10 C          64.0428   91.0225   11.8375 C.2     1  UNL1        0.0901
     11 C          64.8679   92.2551   11.6138 C.3     1  UNL1        0.1113
     12 C          66.1762   95.0001   11.4478 C.3     1  UNL1        0.2520
     13 O          66.5977   93.9917   12.4750 O.2     1  UNL1       -0.4753
     14 C          62.0113   86.9028   10.4740 C.3     1  UNL1        0.3094
     15 C          62.4717   85.6848   11.2185 C.ar    1  UNL1        0.1175
     16 N          62.3268   85.6181   12.7100 N.ar    1  UNL1       -0.2435
     17 C          62.7872   84.4002   13.4546 C.ar    1  UNL1        0.0973
     18 C          63.3927   83.2488   12.7077 C.ar    1  UNL1        0.0309
     19 C          63.8532   82.0308   13.4523 C.3     1  UNL1        0.0358
     20 C          63.5377   83.3155   11.2162 C.ar    1  UNL1        0.1335
     21 C          63.0772   84.5335   10.4716 C.ar    1  UNL1        0.0304
     22 C          63.2221   84.6002    8.9801 C.3     1  UNL1        0.0356
     23 O          64.1431   82.1642   10.4693 O.3     1  UNL1       -0.4720
     24 C          63.3419   80.9180   10.2346 C.3     1  UNL1        0.2524
@<TRIPOS>UNITY_ATOM_ATTR
1 1
charge 1
2 1
charge -1
@<TRIPOS>BOND
     1    12    13    1
     2    13     3    1
     3     3     4    2
     4     4     5    1
     5     5     6    2
     6     6     7    1
     7     7     8    2
     8     8     1    1
     9     1     2    2
    10     1    14    1
    11    14    15    1
    12    15    16   ar
    13    16    17   ar
    14    17    18   ar
    15    18    19    1
    16    18    20   ar
    17    20    23    1
    18    23    24    1
    19    20    21   ar
    20    21    22    1
    21     8     9    1
    22     9    10    2
    23    10    11    1
    24    11     3    1
    25    10     6    1
    26    21    15   ar
@<TRIPOS>MOLECULE
*****
 24 26 0 0 0
SMALL
GASTEIGER

@<TRIPOS>ATOM
      1 S          61.9463   89.3088   11.7098 S.O     1  UNL1        0.0985
      2 O          60.5977   89.5727   12.3110 O.co2   1  UNL1       -0.6751
      3 C          66.4464   93.9122   11.3073 C.2     1  UNL1        0.1223
      4 C          66.6127   93.6333   12.7717 C.2     1  UNL1        0.0343
      5 C          65.7665   92.5887   13.4371 C.2     1  UNL1        0.0233
      6 C          64.7540   91.8230   12.6380 C.2     1  UNL1        0.1014
      7 N          63.7848   90.7428   13.0171 N.2     1  UNL1       -0.1811
      8 C          63.0195   90.3540   11.7870 C.2     1  UNL1        0.3556
      9 N          63.5157   91.1940   10.6476 N.2     1  UNL1       -0.1847
     10 C          64.5878   92.1019   11.1737 C.2     1  UNL1        0.0901
     11 C          65.4340   93.1465   10.5083 C.3     1  UNL1        0.1113
     12 C          67.6850   94.7993    9.2028 C.3     1  UNL1        0.2520
     13 O          67.2926   94.9568   10.6419 O.2     1  UNL1       -0.4753
     14 C          62.2219   87.9997   11.0315 C.3     1  UNL1        0.3094
     15 C          62.7191   86.8312   11.8299 C.ar    1  UNL1        0.1175
     16 N          63.4603   87.0610   13.1136 N.ar    1  UNL1       -0.2435
     17 C          63.9575   85.8925   13.9120 C.ar    1  UNL1        0.0973
     18 C          63.7133   84.4943   13.4268 C.ar    1  UNL1        0.0309
     19 C          64.2105   83.3258   14.2253 C.3     1  UNL1        0.0358
     20 C          62.9721   84.2645   12.1432 C.ar    1  UNL1        0.1335
     21 C          62.4749   85.4330   11.3447 C.ar    1  UNL1        0.0304
     22 C          61.7336   85.2033   10.0611 C.3     1  UNL1        0.0356
     23 O          62.7279   82.8663   11.6580 O.3     1  UNL1       -0.4720
     24 C          63.7150   82.2078   10.7403 C.3     1  UNL1        0.2524
@<TRIPOS>UNITY_ATOM_ATTR
1 1
charge 1
2 1
charge -1
@<TRIPOS>BOND
     1    12    13    1
     2    13     3    1
     3     3     4    2
     4     4     5    1
     5     5     6    2
     6     6     7    1
     7     7     8    2
     8     8     1    1
     9     1     2    2
    10     1    14    1
    11    14    15    1
    12    15    16   ar
    13    16    17   ar
    14    17    18   ar
    15    18    19    1
    16    18    20   ar
    17    20    23    1
    18    23    24    1
    19    20    21   ar
    20    21    22    1
    21     8     9    1
    22     9    10    2
    23    10    11    1
    24    11     3    1
    25    10     6    1
    26    21    15   ar
@<TRIPOS>MOLECULE
*****
 24 26 0 0 0
SMALL
GASTEIGER

@<TRIPOS>ATOM
      1 S          62.0617   89.2020   11.9273 S.O     1  UNL1        0.0985
      2 O          60.6315   89.4759   12.2872 O.co2   1  UNL1       -0.6751
      3 C          66.6713   93.0722   14.2463 C.2     1  UNL1        0.1223
      4 C          66.5956   93.6895   12.8813 C.2     1  UNL1        0.0343
      5 C          65.6307   93.1508   11.8670 C.2     1  UNL1        0.0233
      6 C          64.7415   91.9948   12.2176 C.2     1  UNL1        0.1014
      7 N          63.7001   91.2550   11.4314 N.2     1  UNL1       -0.1811
      8 C          63.1322   90.1804   12.3105 C.2     1  UNL1        0.3556
      9 N          63.8226   90.2561   13.6400 N.2     1  UNL1       -0.1847
     10 C          64.8173   91.3775   13.5826 C.2     1  UNL1        0.0901
     11 C          65.7822   91.9162   14.5969 C.3     1  UNL1        0.1113
     12 C          68.5689   92.6798   15.9769 C.3     1  UNL1        0.2520
     13 O          67.6362   93.6108   15.2606 O.2     1  UNL1       -0.4753
     14 C          62.4215   87.9497   11.1842 C.3     1  UNL1        0.3094
     15 C          62.8148   86.7155   11.9405 C.ar    1  UNL1        0.1175
     16 N          63.5114   86.8367   13.2634 N.ar    1  UNL1       -0.2435
     17 C          63.9047   85.6026   14.0198 C.ar    1  UNL1        0.0973
     18 C          63.6015   84.2471   13.4532 C.ar    1  UNL1        0.0309
     19 C          63.9949   83.0130   14.2096 C.3     1  UNL1        0.0358
     20 C          62.9049   84.1259   12.1303 C.ar    1  UNL1        0.1335
     21 C          62.5116   85.3602   11.3739 C.ar    1  UNL1        0.0304
     22 C          61.8150   85.2390   10.0510 C.3     1  UNL1        0.0356
     23 O          62.6017   82.7706   11.5637 O.3     1  UNL1       -0.4720
     24 C          63.6217   82.0650   10.7201 C.3     1  UNL1        0.2524
@<TRIPOS>UNITY_ATOM_ATTR
1 1
charge 1
2 1
charge -1
@<TRIPOS>BOND
     1    12    13    1
     2    13     3    1
     3     3     4    2
     4     4     5    1
     5     5     6    2
     6     6     7    1
     7     7     8    2
     8     8     1    1
     9     1     2    2
    10     1    14    1
    11    14    15    1
    12    15    16   ar
    13    16    17   ar
    14    17    18   ar
    15    18    19    1
    16    18    20   ar
    17    20    23    1
    18    23    24    1
    19    20    21   ar
    20    21    22    1
    21     8     9    1
    22     9    10    2
    23    10    11    1
    24    11     3    1
    25    10     6    1
    26    21    15   ar
@<TRIPOS>MOLECULE
*****
 24 26 0 0 0
SMALL
GASTEIGER

@<TRIPOS>ATOM
      1 S          63.6116   86.1720   15.3057 S.O     1  UNL1        0.0985
      2 O          62.9025   86.3605   16.6139 O.co2   1  UNL1       -0.6751
      3 C          63.0402   81.0981   11.3643 C.2     1  UNL1        0.1223
      4 C          62.6207   80.3921   12.6194 C.2     1  UNL1        0.0343
      5 C          62.5693   81.1395   13.9190 C.2     1  UNL1        0.0233
      6 C          62.9374   82.5929   13.9634 C.2     1  UNL1        0.1014
      7 N          62.9817   83.5832   15.0891 N.2     1  UNL1       -0.1811
      8 C          63.4287   84.9013   14.5297 C.2     1  UNL1        0.3556
      9 N          63.6606   84.7256   13.0582 N.2     1  UNL1       -0.1847
     10 C          63.3570   83.2989   12.7082 C.2     1  UNL1        0.0901
     11 C          63.4084   82.5515   11.4087 C.3     1  UNL1        0.1113
     12 C          62.7265   78.8966   10.0210 C.3     1  UNL1        0.2520
     13 O          63.0917   80.3508   10.0648 O.2     1  UNL1       -0.4753
     14 C          64.5036   87.2541   14.7733 C.3     1  UNL1        0.3094
     15 C          63.9961   88.1938   13.7200 C.ar    1  UNL1        0.1175
     16 N          63.1710   87.6701   12.5821 N.ar    1  UNL1       -0.2435
     17 C          62.6635   88.6098   11.5289 C.ar    1  UNL1        0.0973
     18 C          62.9812   90.0734   11.6135 C.ar    1  UNL1        0.0309
     19 C          62.4738   91.0131   10.5603 C.3     1  UNL1        0.0358
     20 C          63.8064   90.5971   12.7514 C.ar    1  UNL1        0.1335
     21 C          64.3138   89.6573   13.8047 C.ar    1  UNL1        0.0304
     22 C          65.1390   90.1810   14.9426 C.3     1  UNL1        0.0356
     23 O          64.1241   92.0606   12.8361 O.3     1  UNL1       -0.4720
     24 C          65.3807   92.5925   12.2131 C.3     1  UNL1        0.2524
@<TRIPOS>UNITY_ATOM_ATTR
1 1
charge 1
2 1
charge -1
@<TRIPOS>BOND
     1    12    13    1
     2    13     3    1
     3     3     4    2
     4     4     5    1
     5     5     6    2
     6     6     7    1
     7     7     8    2
     8     8     1    1
     9     1     2    2
    10     1    14    1
    11    14    15    1
    12    15    16   ar
    13    16    17   ar
    14    17    18   ar
    15    18    19    1
    16    18    20   ar
    17    20    23    1
    18    23    24    1
    19    20    21   ar
    20    21    22    1
    21     8     9    1
    22     9    10    2
    23    10    11    1
    24    11     3    1
    25    10     6    1
    26    21    15   ar
@<TRIPOS>MOLECULE
*****
 24 26 0 0 0
SMALL
GASTEIGER

@<TRIPOS>ATOM
      1 S          63.7279   83.7669   14.3739 S.O     1  UNL1        0.0985
      2 O          64.2524   82.7367   15.3296 O.co2   1  UNL1       -0.6751
      3 C          64.0220   90.1293   15.3929 C.2     1  UNL1        0.1223
      4 C          63.3464   89.7768   16.6849 C.2     1  UNL1        0.0343
      5 C          63.0175   88.3461   16.9933 C.2     1  UNL1        0.0233
      6 C          63.3641   87.2680   16.0097 C.2     1  UNL1        0.1014
      7 N          63.1651   85.7816   16.0381 N.2     1  UNL1       -0.1811
      8 C          63.7177   85.2154   14.7637 C.2     1  UNL1        0.3556
      9 N          64.2583   86.3519   13.9476 N.2     1  UNL1       -0.1847
     10 C          64.0397   87.6206   14.7177 C.2     1  UNL1        0.0901
     11 C          64.3687   89.0512   14.4093 C.3     1  UNL1        0.1113
     12 C          65.7635   92.0487   15.2106 C.3     1  UNL1        0.2520
     13 O          64.3510   91.5599   15.0845 O.2     1  UNL1       -0.4753
     14 C          63.2136   83.3488   13.0283 C.3     1  UNL1        0.3094
     15 C          62.7476   84.3845   12.0485 C.ar    1  UNL1        0.1175
     16 N          61.8082   85.4669   12.4912 N.ar    1  UNL1       -0.2435
     17 C          61.3422   86.5026   11.5114 C.ar    1  UNL1        0.0973
     18 C          61.8155   86.4560   10.0888 C.ar    1  UNL1        0.0309
     19 C          61.3495   87.4917    9.1090 C.3     1  UNL1        0.0358
     20 C          62.7548   85.3736    9.6460 C.ar    1  UNL1        0.1335
     21 C          63.2209   84.3378   10.6259 C.ar    1  UNL1        0.0304
     22 C          64.1602   83.2554   10.1831 C.3     1  UNL1        0.0356
     23 O          63.2282   85.3269    8.2234 O.3     1  UNL1       -0.4720
     24 C          62.3317   84.7801    7.1523 C.3     1  UNL1        0.2524
@<TRIPOS>UNITY_ATOM_ATTR
1 1
charge 1
2 1
charge -1
@<TRIPOS>BOND
     1    12    13    1
     2    13     3    1
     3     3     4    2
     4     4     5    1
     5     5     6    2
     6     6     7    1
     7     7     8    2
     8     8     1    1
     9     1     2    2
    10     1    14    1
    11    14    15    1
    12    15    16   ar
    13    16    17   ar
    14    17    18   ar
    15    18    19    1
    16    18    20   ar
    17    20    23    1
    18    23    24    1
    19    20    21   ar
    20    21    22    1
    21     8     9    1
    22     9    10    2
    23    10    11    1
    24    11     3    1
    25    10     6    1
    26    21    15   ar
