@<TRIPOS>MOLECULE
*****
 39 42 0 0 0
SMALL
GASTEIGER

@<TRIPOS>ATOM
      1 N          63.9727   90.0192   12.9642 N.am    1  UNL1       -0.2770
      2 C          62.8873   89.5841   12.0247 C.2     1  UNL1        0.2253
      3 O          61.9883   88.4419   12.3949 O.2     1  UNL1       -0.2749
      4 C          62.7009   90.2913   10.7151 C.3     1  UNL1        0.0746
      5 C          62.1340   90.6443    9.3720 C.3     1  UNL1        0.0095
      6 C          63.6000   91.4335   10.3449 C.3     1  UNL1        0.0153
      7 C          64.6854   91.8686   11.2843 C.3     1  UNL1        0.0452
      8 C          64.8717   91.1614   12.5940 C.3     1  UNL1        0.1019
      9 C          65.9572   91.5965   13.5335 C.ar    1  UNL1       -0.0017
     10 C          65.6045   92.1467   14.8836 C.ar    1  UNL1       -0.0017
     11 C          66.6898   92.5818   15.8231 C.ar    1  UNL1        0.0134
     12 C          68.1280   92.4667   15.4125 C.ar    1  UNL1        0.0850
     13 CL         69.2133   92.9017   16.3520 Cl      1  UNL1       -0.0799
     14 C          68.4807   91.9164   14.0623 C.ar    1  UNL1        0.1503
     15 F          69.9187   91.8013   13.6517 F       1  UNL1       -0.2033
     16 C          67.3952   91.4814   13.1228 C.ar    1  UNL1        0.0278
     17 C          65.5844   93.0108   10.9141 C.ar    1  UNL1       -0.0197
     18 C          66.6957   92.8017    9.9287 C.ar    1  UNL1       -0.0042
     19 C          67.5947   93.9439    9.5585 C.ar    1  UNL1        0.0005
     20 C          67.3825   95.2953   10.1738 C.ar    1  UNL1        0.0114
     21 C          66.2711   95.5045   11.1592 C.ar    1  UNL1        0.0574
     22 CL         66.0588   96.8559   11.7745 Cl      1  UNL1       -0.0823
     23 C          65.3721   94.3622   11.5294 C.ar    1  UNL1        0.0072
     24 C          64.1591   89.3120   14.2739 C.3     1  UNL1        0.0991
     25 C          63.6001   89.9057   15.5329 C.3     1  UNL1        0.0200
     26 C          63.3572   91.0974   16.4108 C.3     1  UNL1        0.0018
     27 C          62.8750   89.7421   16.8357 C.3     1  UNL1        0.0018
     28 C          64.9045   88.0114   14.3245 C.3     1  UNL1        0.1703
     29 S          64.1686   86.7359   14.6105 S.O2    1  UNL1       -0.0115
     30 O          63.8159   86.6136   13.1577 O.2     1  UNL1       -0.1730
     31 O          64.5213   86.8582   16.0632 O.2     1  UNL1       -0.1730
     32 C          63.4418   85.7837   16.3611 C.3     1  UNL1        0.0236
     33 C          63.4328   85.4604   14.8965 C.3     1  UNL1        0.1108
     34 C          63.4238   85.1372   13.4318 C.3     1  UNL1        0.0236
     35 C          62.6970   84.1850   15.1825 C.3     1  UNL1        0.0236
     36 C          61.6050   89.2717   10.6188 C.3     1  UNL1        0.0503
     37 C          60.2500   89.6722   10.1153 C.2     1  UNL1        0.0508
     38 O          59.4592   90.7193   10.8423 O.co2   1  UNL1       -0.5492
     39 O          59.6857   89.0257    8.8850 O.co2   1  UNL1       -0.5492
@<TRIPOS>UNITY_ATOM_ATTR
38 1
charge -1
@<TRIPOS>BOND
     1    32    33    1
     2    33    34    1
     3    33    35    1
     4    33    29    1
     5    29    30    2
     6    29    31    2
     7    29    28    1
     8    24    28    1
     9    24    25    1
    10    25    26    1
    11    26    27    1
    12    24     1    1
    13     1     2   am
    14     2     3    2
    15     2     4    1
    16     4     5    1
    17     4    36    1
    18    36    37    1
    19    37    38   ar
    20    37    39   ar
    21     4     6    1
    22     6     7    1
    23     7    17    1
    24    17    18   ar
    25    18    19   ar
    26    19    20   ar
    27    20    21   ar
    28    21    22    1
    29    21    23   ar
    30     7     8    1
    31     8     9    1
    32     9    10   ar
    33    10    11   ar
    34    11    12   ar
    35    12    13    1
    36    12    14   ar
    37    14    15    1
    38    14    16   ar
    39    27    25    1
    40     8     1    1
    41    16     9   ar
    42    23    17   ar
@<TRIPOS>MOLECULE
*****
 39 42 0 0 0
SMALL
GASTEIGER

@<TRIPOS>ATOM
      1 N          62.8023   88.1281   12.3484 N.am    1  UNL1       -0.2770
      2 C          63.3906   88.4210   13.6968 C.2     1  UNL1        0.2253
      3 O          63.4281   89.8305   14.2086 O.2     1  UNL1       -0.2749
      4 C          63.9413   87.3044   14.5334 C.3     1  UNL1        0.0746
      5 C          64.5823   86.5913   15.6868 C.3     1  UNL1        0.0095
      6 C          63.9037   85.8949   14.0216 C.3     1  UNL1        0.0153
      7 C          63.3154   85.6020   12.6732 C.3     1  UNL1        0.0452
      8 C          62.7648   86.7186   11.8367 C.3     1  UNL1        0.1019
      9 C          62.1765   86.4257   10.4882 C.ar    1  UNL1       -0.0017
     10 C          63.0464   85.8873    9.3913 C.ar    1  UNL1       -0.0017
     11 C          62.4582   85.5945    8.0429 C.ar    1  UNL1        0.0134
     12 C          60.9999   85.8400    7.7914 C.ar    1  UNL1        0.0850
     13 CL         60.4117   85.5472    6.4430 Cl      1  UNL1       -0.0799
     14 C          60.1299   86.3784    8.8883 C.ar    1  UNL1        0.1503
     15 F          58.6717   86.6240    8.6369 F       1  UNL1       -0.2033
     16 C          60.7182   86.6713   10.2368 C.ar    1  UNL1        0.0278
     17 C          63.2779   84.1925   12.1615 C.ar    1  UNL1       -0.0197
     18 C          63.9930   83.8362   10.8920 C.ar    1  UNL1       -0.0042
     19 C          63.9555   82.4267   10.3802 C.ar    1  UNL1        0.0005
     20 C          63.2027   81.3735   11.1379 C.ar    1  UNL1        0.0114
     21 C          62.4876   81.7298   12.4073 C.ar    1  UNL1        0.0574
     22 CL         61.7348   80.6766   13.1651 Cl      1  UNL1       -0.0823
     23 C          62.5251   83.1393   12.9191 C.ar    1  UNL1        0.0072
     24 C          62.2516   89.2447   11.5118 C.3     1  UNL1        0.0991
     25 C          60.8133   89.6471   11.6509 C.3     1  UNL1        0.0200
     26 C          59.6547   90.4969   11.2205 C.3     1  UNL1        0.0018
     27 C          59.4807   89.4942   12.3224 C.3     1  UNL1        0.0018
     28 C          63.1392   89.9589   10.5360 C.3     1  UNL1        0.1703
     29 S          63.9644   91.1269   10.9886 S.O2    1  UNL1       -0.0115
     30 O          63.4218   91.9488    9.8572 O.2     1  UNL1       -0.1730
     31 O          64.5070   90.3051   12.1201 O.2     1  UNL1       -0.1730
     32 C          64.6915   92.8955   10.0703 C.3     1  UNL1        0.0236
     33 C          64.7896   92.2949   11.4413 C.3     1  UNL1        0.1108
     34 C          64.8877   91.6942   12.8122 C.3     1  UNL1        0.0236
     35 C          65.6149   93.4628   11.8939 C.3     1  UNL1        0.0236
     36 C          64.2015   88.4662   15.4458 C.3     1  UNL1        0.0503
     37 C          63.2208   88.8032   16.5296 C.2     1  UNL1        0.0508
     38 O          62.2896   87.7498   17.0525 O.co2   1  UNL1       -0.5492
     39 O          63.1712   90.1935   17.0905 O.co2   1  UNL1       -0.5492
@<TRIPOS>UNITY_ATOM_ATTR
38 1
charge -1
@<TRIPOS>BOND
     1    32    33    1
     2    33    34    1
     3    33    35    1
     4    33    29    1
     5    29    30    2
     6    29    31    2
     7    29    28    1
     8    24    28    1
     9    24    25    1
    10    25    26    1
    11    26    27    1
    12    24     1    1
    13     1     2   am
    14     2     3    2
    15     2     4    1
    16     4     5    1
    17     4    36    1
    18    36    37    1
    19    37    38   ar
    20    37    39   ar
    21     4     6    1
    22     6     7    1
    23     7    17    1
    24    17    18   ar
    25    18    19   ar
    26    19    20   ar
    27    20    21   ar
    28    21    22    1
    29    21    23   ar
    30     7     8    1
    31     8     9    1
    32     9    10   ar
    33    10    11   ar
    34    11    12   ar
    35    12    13    1
    36    12    14   ar
    37    14    15    1
    38    14    16   ar
    39    27    25    1
    40     8     1    1
    41    16     9   ar
    42    23    17   ar
@<TRIPOS>MOLECULE
*****
 39 42 0 0 0
SMALL
GASTEIGER

@<TRIPOS>ATOM
      1 N          61.6038   94.3830   -3.2266 N.am    1  UNL1       -0.2770
      2 C          62.8713   94.2306   -4.0140 C.2     1  UNL1        0.2253
      3 O          64.1695   93.9820   -3.3048 O.2     1  UNL1       -0.2749
      4 C          62.8407   94.3268   -5.5106 C.3     1  UNL1        0.0746
      5 C          63.3185   94.3380   -6.9324 C.3     1  UNL1        0.0095
      6 C          61.5425   94.5754   -6.2197 C.3     1  UNL1        0.0153
      7 C          60.2749   94.7278   -5.4323 C.3     1  UNL1        0.0452
      8 C          60.3056   94.6316   -3.9357 C.3     1  UNL1        0.1019
      9 C          59.0380   94.7841   -3.1483 C.ar    1  UNL1       -0.0017
     10 C          58.6237   96.1363   -2.6483 C.ar    1  UNL1       -0.0017
     11 C          57.3562   96.2887   -1.8609 C.ar    1  UNL1        0.0134
     12 C          56.5029   95.0890   -1.5733 C.ar    1  UNL1        0.0850
     13 CL         55.2354   95.2414   -0.7858 Cl      1  UNL1       -0.0799
     14 C          56.9172   93.7368   -2.0732 C.ar    1  UNL1        0.1503
     15 F          56.0641   92.5371   -1.7857 F       1  UNL1       -0.2033
     16 C          58.1848   93.5844   -2.8607 C.ar    1  UNL1        0.0278
     17 C          58.9768   94.9764   -6.1415 C.ar    1  UNL1       -0.0197
     18 C          58.5822   96.3744   -6.5155 C.ar    1  UNL1       -0.0042
     19 C          57.2840   96.6230   -7.2247 C.ar    1  UNL1        0.0005
     20 C          56.3804   95.4736   -7.5598 C.ar    1  UNL1        0.0114
     21 C          56.7749   94.0756   -7.1857 C.ar    1  UNL1        0.0574
     22 CL         55.8713   92.9262   -7.5208 Cl      1  UNL1       -0.0823
     23 C          58.0731   93.8270   -6.4766 C.ar    1  UNL1        0.0072
     24 C          61.6344   94.2869   -1.7299 C.3     1  UNL1        0.0991
     25 C          61.8475   95.5203   -0.9034 C.3     1  UNL1        0.0200
     26 C          61.3083   96.7678   -0.2685 C.3     1  UNL1        0.0018
     27 C          62.7558   96.4092   -0.1066 C.3     1  UNL1        0.0018
     28 C          61.4519   92.9573   -1.0599 C.3     1  UNL1        0.1703
     29 S          61.1524   92.8922    0.4085 S.O2    1  UNL1       -0.0115
     30 O          59.6826   92.9108    0.1096 O.2     1  UNL1       -0.1730
     31 O          62.6221   92.8737    0.7074 O.2     1  UNL1       -0.1730
     32 C          62.3017   92.5613    2.1604 C.3     1  UNL1        0.0236
     33 C          60.8530   92.8272    1.8768 C.3     1  UNL1        0.1108
     34 C          59.4042   93.0930    1.5932 C.3     1  UNL1        0.0236
     35 C          60.5535   92.7621    3.3451 C.3     1  UNL1        0.0236
     36 C          64.3048   94.0821   -5.2953 C.3     1  UNL1        0.0503
     37 C          64.9671   92.8926   -5.9251 C.2     1  UNL1        0.0508
     38 O          64.2434   91.5805   -5.9943 O.co2   1  UNL1       -0.5492
     39 O          66.3530   93.0153   -6.4856 O.co2   1  UNL1       -0.5492
@<TRIPOS>UNITY_ATOM_ATTR
38 1
charge -1
@<TRIPOS>BOND
     1    32    33    1
     2    33    34    1
     3    33    35    1
     4    33    29    1
     5    29    30    2
     6    29    31    2
     7    29    28    1
     8    24    28    1
     9    24    25    1
    10    25    26    1
    11    26    27    1
    12    24     1    1
    13     1     2   am
    14     2     3    2
    15     2     4    1
    16     4     5    1
    17     4    36    1
    18    36    37    1
    19    37    38   ar
    20    37    39   ar
    21     4     6    1
    22     6     7    1
    23     7    17    1
    24    17    18   ar
    25    18    19   ar
    26    19    20   ar
    27    20    21   ar
    28    21    22    1
    29    21    23   ar
    30     7     8    1
    31     8     9    1
    32     9    10   ar
    33    10    11   ar
    34    11    12   ar
    35    12    13    1
    36    12    14   ar
    37    14    15    1
    38    14    16   ar
    39    27    25    1
    40     8     1    1
    41    16     9   ar
    42    23    17   ar
@<TRIPOS>MOLECULE
*****
 39 42 0 0 0
SMALL
GASTEIGER

@<TRIPOS>ATOM
      1 N          61.4921   94.7323   -3.2462 N.am    1  UNL1       -0.2770
      2 C          62.7387   94.4452   -4.0294 C.2     1  UNL1        0.2253
      3 O          64.0561   94.3202   -3.3232 O.2     1  UNL1       -0.2749
      4 C          62.6679   94.2831   -5.5189 C.3     1  UNL1        0.0746
      5 C          63.1077   94.0494   -6.9338 C.3     1  UNL1        0.0095
      6 C          61.3505   94.4081   -6.2252 C.3     1  UNL1        0.0153
      7 C          60.1039   94.6951   -5.4420 C.3     1  UNL1        0.0452
      8 C          60.1747   94.8572   -3.9525 C.3     1  UNL1        0.1019
      9 C          58.9280   95.1443   -3.1692 C.ar    1  UNL1       -0.0017
     10 C          58.5287   96.5626   -2.8883 C.ar    1  UNL1       -0.0017
     11 C          57.2821   96.8498   -2.1051 C.ar    1  UNL1        0.0134
     12 C          56.4348   95.7185   -1.6026 C.ar    1  UNL1        0.0850
     13 CL         55.1882   96.0056   -0.8193 Cl      1  UNL1       -0.0799
     14 C          56.8341   94.3002   -1.8834 C.ar    1  UNL1        0.1503
     15 F          55.9869   93.1690   -1.3810 F       1  UNL1       -0.2033
     16 C          58.0808   94.0131   -2.6667 C.ar    1  UNL1        0.0278
     17 C          58.7865   94.8201   -6.1483 C.ar    1  UNL1       -0.0197
     18 C          58.2912   96.1690   -6.5786 C.ar    1  UNL1       -0.0042
     19 C          56.9738   96.2939   -7.2849 C.ar    1  UNL1        0.0005
     20 C          56.1517   95.0700   -7.5608 C.ar    1  UNL1        0.0114
     21 C          56.6469   93.7212   -7.1304 C.ar    1  UNL1        0.0574
     22 CL         55.8248   92.4972   -7.4063 Cl      1  UNL1       -0.0823
     23 C          57.9643   93.5962   -6.4241 C.ar    1  UNL1        0.0072
     24 C          61.5628   94.8944   -1.7566 C.3     1  UNL1        0.0991
     25 C          61.3653   93.7062   -0.8627 C.3     1  UNL1        0.0200
     26 C          60.5989   92.4702   -0.4952 C.3     1  UNL1        0.0018
     27 C          61.7894   92.8842    0.3181 C.3     1  UNL1        0.0018
     28 C          61.8311   96.2446   -1.1610 C.3     1  UNL1        0.1703
     29 S          62.7355   96.3733    0.0288 S.O2    1  UNL1       -0.0115
     30 O          63.9271   96.1386   -0.8514 O.2     1  UNL1       -0.1730
     31 O          61.5439   96.6081    0.9091 O.2     1  UNL1       -0.1730
     32 C          64.8186   96.1495    0.3608 C.3     1  UNL1        0.0236
     33 C          63.6397   96.5020    1.2186 C.3     1  UNL1        0.1108
     34 C          62.4608   96.8545    2.0764 C.3     1  UNL1        0.0236
     35 C          64.5440   96.6307    2.4084 C.3     1  UNL1        0.0236
     36 C          64.1381   94.0770   -5.3041 C.3     1  UNL1        0.0503
     37 C          64.8325   92.9092   -5.9397 C.2     1  UNL1        0.0508
     38 O          64.1805   91.5582   -5.9399 O.co2   1  UNL1       -0.5492
     39 O          66.1789   93.0923   -6.5751 O.co2   1  UNL1       -0.5492
@<TRIPOS>UNITY_ATOM_ATTR
38 1
charge -1
@<TRIPOS>BOND
     1    32    33    1
     2    33    34    1
     3    33    35    1
     4    33    29    1
     5    29    30    2
     6    29    31    2
     7    29    28    1
     8    24    28    1
     9    24    25    1
    10    25    26    1
    11    26    27    1
    12    24     1    1
    13     1     2   am
    14     2     3    2
    15     2     4    1
    16     4     5    1
    17     4    36    1
    18    36    37    1
    19    37    38   ar
    20    37    39   ar
    21     4     6    1
    22     6     7    1
    23     7    17    1
    24    17    18   ar
    25    18    19   ar
    26    19    20   ar
    27    20    21   ar
    28    21    22    1
    29    21    23   ar
    30     7     8    1
    31     8     9    1
    32     9    10   ar
    33    10    11   ar
    34    11    12   ar
    35    12    13    1
    36    12    14   ar
    37    14    15    1
    38    14    16   ar
    39    27    25    1
    40     8     1    1
    41    16     9   ar
    42    23    17   ar
@<TRIPOS>MOLECULE
*****
 39 42 0 0 0
SMALL
GASTEIGER

@<TRIPOS>ATOM
      1 N          61.7531   87.5977   10.8972 N.am    1  UNL1       -0.2770
      2 C          61.2776   87.6861    9.4773 C.2     1  UNL1        0.2253
      3 O          60.7272   88.9778    8.9498 O.2     1  UNL1       -0.2749
      4 C          61.3527   86.4827    8.5850 C.3     1  UNL1        0.0746
      5 C          61.2206   85.6244    7.3620 C.3     1  UNL1        0.0095
      6 C          61.9032   85.1910    9.1126 C.3     1  UNL1        0.0153
      7 C          62.3786   85.1026   10.5325 C.3     1  UNL1        0.0452
      8 C          62.3036   86.3059   11.4248 C.3     1  UNL1        0.1019
      9 C          62.7791   86.2176   12.8447 C.ar    1  UNL1       -0.0017
     10 C          63.8777   87.1187   13.3252 C.ar    1  UNL1       -0.0017
     11 C          64.3532   87.0304   14.7450 C.ar    1  UNL1        0.0134
     12 C          63.7300   86.0409   15.6845 C.ar    1  UNL1        0.0850
     13 CL         64.2055   85.9526   17.1044 Cl      1  UNL1       -0.0799
     14 C          62.6314   85.1397   15.2041 C.ar    1  UNL1        0.1503
     15 F          62.0082   84.1502   16.1435 F       1  UNL1       -0.2033
     16 C          62.1559   85.2281   13.7841 C.ar    1  UNL1        0.0278
     17 C          62.9291   83.8108   11.0600 C.ar    1  UNL1       -0.0197
     18 C          64.3259   83.3918   10.7090 C.ar    1  UNL1       -0.0042
     19 C          64.8764   82.1001   11.2366 C.ar    1  UNL1        0.0005
     20 C          64.0301   81.2273   12.1151 C.ar    1  UNL1        0.0114
     21 C          62.6332   81.6463   12.4661 C.ar    1  UNL1        0.0574
     22 CL         61.7868   80.7735   13.3447 Cl      1  UNL1       -0.0823
     23 C          62.0827   82.9380   11.9386 C.ar    1  UNL1        0.0072
     24 C          61.6781   88.8011   11.7896 C.3     1  UNL1        0.0991
     25 C          60.3635   89.4879   12.0136 C.3     1  UNL1        0.0200
     26 C          59.0217   89.5386   12.6821 C.3     1  UNL1        0.0018
     27 C          59.4285   90.6267   11.7331 C.3     1  UNL1        0.0018
     28 C          62.9176   89.3176   12.4579 C.3     1  UNL1        0.1703
     29 S          63.5985   90.5454   11.9295 S.O2    1  UNL1       -0.0115
     30 O          63.9141   90.9739   13.3319 O.2     1  UNL1       -0.1730
     31 O          63.2829   90.1168   10.5272 O.2     1  UNL1       -0.1730
     32 C          65.0237   91.9173   12.6954 C.3     1  UNL1        0.0236
     33 C          64.2793   91.7730   11.4012 C.3     1  UNL1        0.1108
     34 C          63.5350   91.6288   10.1069 C.3     1  UNL1        0.0236
     35 C          64.9602   93.0007   10.8728 C.3     1  UNL1        0.0236
     36 C          60.7563   87.4763    7.6326 C.3     1  UNL1        0.0503
     37 C          59.2663   87.5911    7.5040 C.2     1  UNL1        0.0508
     38 O          58.6640   88.7531    6.7711 O.co2   1  UNL1       -0.5492
     39 O          58.3785   86.5437    8.1082 O.co2   1  UNL1       -0.5492
@<TRIPOS>UNITY_ATOM_ATTR
38 1
charge -1
@<TRIPOS>BOND
     1    32    33    1
     2    33    34    1
     3    33    35    1
     4    33    29    1
     5    29    30    2
     6    29    31    2
     7    29    28    1
     8    24    28    1
     9    24    25    1
    10    25    26    1
    11    26    27    1
    12    24     1    1
    13     1     2   am
    14     2     3    2
    15     2     4    1
    16     4     5    1
    17     4    36    1
    18    36    37    1
    19    37    38   ar
    20    37    39   ar
    21     4     6    1
    22     6     7    1
    23     7    17    1
    24    17    18   ar
    25    18    19   ar
    26    19    20   ar
    27    20    21   ar
    28    21    22    1
    29    21    23   ar
    30     7     8    1
    31     8     9    1
    32     9    10   ar
    33    10    11   ar
    34    11    12   ar
    35    12    13    1
    36    12    14   ar
    37    14    15    1
    38    14    16   ar
    39    27    25    1
    40     8     1    1
    41    16     9   ar
    42    23    17   ar
@<TRIPOS>MOLECULE
*****
 39 42 0 0 0
SMALL
GASTEIGER

@<TRIPOS>ATOM
      1 N          63.3781   85.6189   12.8340 N.am    1  UNL1       -0.2770
      2 C          63.9446   84.2456   13.0410 C.2     1  UNL1        0.2253
      3 O          64.6682   83.9166   14.3131 O.2     1  UNL1       -0.2749
      4 C          63.7875   83.2011   11.9759 C.3     1  UNL1        0.0746
      5 C          63.8946   81.8835   11.2671 C.3     1  UNL1        0.0095
      6 C          63.0639   83.5300   10.7038 C.3     1  UNL1        0.0153
      7 C          62.4975   84.9034   10.4968 C.3     1  UNL1        0.0452
      8 C          62.6546   85.9479   11.5618 C.3     1  UNL1        0.1019
      9 C          62.0881   87.3213   11.3548 C.ar    1  UNL1       -0.0017
     10 C          62.8803   88.3550   10.6106 C.ar    1  UNL1       -0.0017
     11 C          62.3139   89.7284   10.4036 C.ar    1  UNL1        0.0134
     12 C          60.9552   90.0682   10.9408 C.ar    1  UNL1        0.0850
     13 CL         60.3888   91.4416   10.7338 Cl      1  UNL1       -0.0799
     14 C          60.1630   89.0345   11.6851 C.ar    1  UNL1        0.1503
     15 F          58.8043   89.3742   12.2223 F       1  UNL1       -0.2033
     16 C          60.7295   87.6610   11.8921 C.ar    1  UNL1        0.0278
     17 C          61.7739   85.2323    9.2247 C.ar    1  UNL1       -0.0197
     18 C          60.5532   86.1033    9.2599 C.ar    1  UNL1       -0.0042
     19 C          59.8296   86.4322    7.9878 C.ar    1  UNL1        0.0005
     20 C          60.3268   85.8902    6.6805 C.ar    1  UNL1        0.0114
     21 C          61.5475   85.0193    6.6453 C.ar    1  UNL1        0.0574
     22 CL         62.0447   84.4772    5.3380 Cl      1  UNL1       -0.0823
     23 C          62.2710   84.6903    7.9174 C.ar    1  UNL1        0.0072
     24 C          63.5352   86.6635   13.8990 C.3     1  UNL1        0.0991
     25 C          63.2684   86.3174   15.3340 C.3     1  UNL1        0.0200
     26 C          62.3293   85.8418   16.4026 C.3     1  UNL1        0.0018
     27 C          63.7453   86.1937   16.7507 C.3     1  UNL1        0.0018
     28 C          63.9591   88.0539   13.5292 C.3     1  UNL1        0.1703
     29 S          63.9367   89.1439   14.5595 S.O2    1  UNL1       -0.0115
     30 O          65.3037   88.7349   15.0220 O.2     1  UNL1       -0.1730
     31 O          62.5697   89.5530   14.0970 O.2     1  UNL1       -0.1730
     32 C          62.8462   89.4989   16.3441 C.3     1  UNL1        0.0236
     33 C          63.9143   90.2339   15.5897 C.3     1  UNL1        0.1108
     34 C          64.9823   90.9689   14.8354 C.3     1  UNL1        0.0236
     35 C          63.8918   91.3238   16.6200 C.3     1  UNL1        0.0236
     36 C          64.5483   82.4145   13.0018 C.3     1  UNL1        0.0503
     37 C          63.8439   81.3781   13.8262 C.2     1  UNL1        0.0508
     38 O          64.6312   80.2934   14.4998 O.co2   1  UNL1       -0.5492
     39 O          62.3522   81.4264   13.9770 O.co2   1  UNL1       -0.5492
@<TRIPOS>UNITY_ATOM_ATTR
38 1
charge -1
@<TRIPOS>BOND
     1    32    33    1
     2    33    34    1
     3    33    35    1
     4    33    29    1
     5    29    30    2
     6    29    31    2
     7    29    28    1
     8    24    28    1
     9    24    25    1
    10    25    26    1
    11    26    27    1
    12    24     1    1
    13     1     2   am
    14     2     3    2
    15     2     4    1
    16     4     5    1
    17     4    36    1
    18    36    37    1
    19    37    38   ar
    20    37    39   ar
    21     4     6    1
    22     6     7    1
    23     7    17    1
    24    17    18   ar
    25    18    19   ar
    26    19    20   ar
    27    20    21   ar
    28    21    22    1
    29    21    23   ar
    30     7     8    1
    31     8     9    1
    32     9    10   ar
    33    10    11   ar
    34    11    12   ar
    35    12    13    1
    36    12    14   ar
    37    14    15    1
    38    14    16   ar
    39    27    25    1
    40     8     1    1
    41    16     9   ar
    42    23    17   ar
