@<TRIPOS>MOLECULE
*****
 23 24 0 0 0
SMALL
GASTEIGER

@<TRIPOS>ATOM
      1 C          64.6338   91.8274   12.5183 C.ar    1  UNL1        0.0503
      2 C          63.7269   90.8397   11.8462 C.ar    1  UNL1        0.0148
      3 C          63.4681   89.5059   12.4818 C.ar    1  UNL1        0.0058
      4 C          64.1163   89.1598   13.7895 C.ar    1  UNL1        0.0538
      5 C          65.0233   90.1475   14.4616 C.ar    1  UNL1        0.0058
      6 C          65.2820   91.4813   13.8260 C.ar    1  UNL1        0.0148
      7 C          66.2999   93.6540   11.7198 C.2     1  UNL1        0.2261
      8 O          67.4486   92.8129   12.1924 O.2     1  UNL1       -0.2748
      9 N          64.8926   93.1612   11.8828 N.am    1  UNL1       -0.2839
     10 H          64.1387   93.7133   11.5726 H       1  UNL1        0.1549
     11 C          66.5587   94.9878   11.0842 C.3     1  UNL1        0.0854
     12 C          67.3314   95.0700    9.8011 C.3     1  UNL1        0.0096
     13 C          68.5975   92.9432    9.0112 C.3     1  UNL1        0.0000
     14 C          67.4243   93.8717    8.9036 C.3     1  UNL1        0.0005
     15 C          63.8575   87.8259   14.4250 C.2     1  UNL1        0.2509
     16 O          63.6164   87.7333   15.9026 O.2     1  UNL1       -0.2698
     17 N          63.8399   86.5847   13.5830 N.am    1  UNL1       -0.2606
     18 H          63.9982   86.6455   12.6133 H       1  UNL1        0.1571
     19 C          63.5812   85.2509   14.2186 C.ar    1  UNL1        0.1658
     20 N          62.2741   84.7839   14.7873 N.ar    1  UNL1       -0.2224
     21 C          62.4691   83.3942   15.3172 C.ar    1  UNL1        0.1079
     22 C          63.8968   83.0024   15.0761 C.ar    1  UNL1        0.0588
     23 S          64.5841   84.1498   14.3971 S.2     1  UNL1       -0.0508
@<TRIPOS>BOND
     1    13    14    1
     2    14    12    1
     3    12    11    1
     4    11     7    1
     5     7     8    2
     6     7     9   am
     7     9     1    1
     8     1     2   ar
     9     2     3   ar
    10     3     4   ar
    11     4    15    1
    12    15    16    2
    13    15    17   am
    14    17    19    1
    15    19    20   ar
    16    20    21   ar
    17    21    22   ar
    18    22    23   ar
    19     4     5   ar
    20     5     6   ar
    21     6     1   ar
    22    23    19   ar
    23     9    10    1
    24    17    18    1
@<TRIPOS>MOLECULE
*****
 23 24 0 0 0
SMALL
GASTEIGER

@<TRIPOS>ATOM
      1 C          61.9622   89.5842   10.5207 C.ar    1  UNL1        0.0503
      2 C          62.3491   89.1936   11.9162 C.ar    1  UNL1        0.0148
      3 C          63.4137   89.9615   12.6421 C.ar    1  UNL1        0.0058
      4 C          64.0913   91.1201   11.9725 C.ar    1  UNL1        0.0538
      5 C          63.7043   91.5108   10.5769 C.ar    1  UNL1        0.0058
      6 C          62.6397   90.7428    9.8510 C.ar    1  UNL1        0.0148
      7 C          61.0958   87.3600    9.4949 C.2     1  UNL1        0.2261
      8 O          62.3586   86.6716    9.9209 O.2     1  UNL1       -0.2748
      9 N          60.8976   88.8163    9.7947 N.am    1  UNL1       -0.2839
     10 H          60.0688   89.2681    9.5151 H       1  UNL1        0.1549
     11 C          60.0312   86.5921    8.7689 C.3     1  UNL1        0.0854
     12 C          60.3162   86.0115    7.4155 C.3     1  UNL1        0.0096
     13 C          61.7117   84.4292    5.8993 C.3     1  UNL1        0.0000
     14 C          61.4916   85.0997    7.2229 C.3     1  UNL1        0.0005
     15 C          65.1559   91.8880   12.6984 C.2     1  UNL1        0.2509
     16 O          65.5109   93.2772   12.2579 O.2     1  UNL1       -0.2698
     17 N          65.8654   91.2668   13.8648 N.am    1  UNL1       -0.2606
     18 H          65.6324   90.3550   14.1539 H       1  UNL1        0.1571
     19 C          66.9300   92.0347   14.5907 C.ar    1  UNL1        0.1658
     20 N          68.3451   92.2282   14.1326 N.ar    1  UNL1       -0.2224
     21 C          69.0561   93.0571   15.1610 C.ar    1  UNL1        0.1079
     22 C          68.0803   93.3759   16.2547 C.ar    1  UNL1        0.0588
     23 S          66.7663   92.7441   15.9023 S.2     1  UNL1       -0.0508
@<TRIPOS>BOND
     1    13    14    1
     2    14    12    1
     3    12    11    1
     4    11     7    1
     5     7     8    2
     6     7     9   am
     7     9     1    1
     8     1     2   ar
     9     2     3   ar
    10     3     4   ar
    11     4    15    1
    12    15    16    2
    13    15    17   am
    14    17    19    1
    15    19    20   ar
    16    20    21   ar
    17    21    22   ar
    18    22    23   ar
    19     4     5   ar
    20     5     6   ar
    21     6     1   ar
    22    23    19   ar
    23     9    10    1
    24    17    18    1
@<TRIPOS>MOLECULE
*****
 23 24 0 0 0
SMALL
GASTEIGER

@<TRIPOS>ATOM
      1 C          61.6934   90.1386   10.3140 C.ar    1  UNL1        0.0503
      2 C          62.8191   91.0590    9.9458 C.ar    1  UNL1        0.0148
      3 C          63.8861   91.3783   10.9505 C.ar    1  UNL1        0.0058
      4 C          63.8274   90.7771   12.3235 C.ar    1  UNL1        0.0538
      5 C          62.7017   89.8567   12.6917 C.ar    1  UNL1        0.0058
      6 C          61.6347   89.5374   11.6869 C.ar    1  UNL1        0.0148
      7 C          60.5428   88.4446    8.7150 C.2     1  UNL1        0.2261
      8 O          61.5264   87.3890    9.1257 O.2     1  UNL1       -0.2748
      9 N          60.6264   89.8193    9.3092 N.am    1  UNL1       -0.2839
     10 H          59.9809   90.5121    9.0397 H       1  UNL1        0.1549
     11 C          59.4758   88.1254    7.7103 C.3     1  UNL1        0.0854
     12 C          58.7663   89.2346    6.9917 C.3     1  UNL1        0.0096
     13 C          58.7844   91.1528    5.2395 C.3     1  UNL1        0.0000
     14 C          59.4785   90.0141    5.9262 C.3     1  UNL1        0.0005
     15 C          64.8944   91.0963   13.3283 C.2     1  UNL1        0.2509
     16 O          64.9931   90.3007   14.5960 O.2     1  UNL1       -0.2698
     17 N          65.8628   92.2112   13.0653 N.am    1  UNL1       -0.2606
     18 H          65.7981   92.7334   12.2332 H       1  UNL1        0.1571
     19 C          66.9298   92.5305   14.0701 C.ar    1  UNL1        0.1658
     20 N          68.4033   92.3145   13.8903 N.ar    1  UNL1       -0.2224
     21 C          69.0949   92.7723   15.1401 C.ar    1  UNL1        0.1079
     22 C          68.0488   93.2712   16.0924 C.ar    1  UNL1        0.0588
     23 S          66.7107   93.1218   15.4312 S.2     1  UNL1       -0.0508
@<TRIPOS>BOND
     1    13    14    1
     2    14    12    1
     3    12    11    1
     4    11     7    1
     5     7     8    2
     6     7     9   am
     7     9     1    1
     8     1     2   ar
     9     2     3   ar
    10     3     4   ar
    11     4    15    1
    12    15    16    2
    13    15    17   am
    14    17    19    1
    15    19    20   ar
    16    20    21   ar
    17    21    22   ar
    18    22    23   ar
    19     4     5   ar
    20     5     6   ar
    21     6     1   ar
    22    23    19   ar
    23     9    10    1
    24    17    18    1
@<TRIPOS>MOLECULE
*****
 23 24 0 0 0
SMALL
GASTEIGER

@<TRIPOS>ATOM
      1 C          59.3825   88.4753    7.6521 C.ar    1  UNL1        0.0503
      2 C          59.4375   87.0033    7.3692 C.ar    1  UNL1        0.0148
      3 C          60.3192   86.1134    8.1944 C.ar    1  UNL1        0.0058
      4 C          61.1458   86.6956    9.3024 C.ar    1  UNL1        0.0538
      5 C          61.0907   88.1676    9.5853 C.ar    1  UNL1        0.0058
      6 C          60.2091   89.0574    8.7601 C.ar    1  UNL1        0.0148
      7 C          59.1056   90.2779    5.8017 C.2     1  UNL1        0.2261
      8 O          60.5921   90.3007    5.6015 O.2     1  UNL1       -0.2748
      9 N          58.5009   89.3652    6.8270 N.am    1  UNL1       -0.2839
     10 H          57.5253   89.3502    6.9583 H       1  UNL1        0.1549
     11 C          58.2240   91.1677    4.9766 C.3     1  UNL1        0.0854
     12 C          58.7694   92.4434    4.4062 C.3     1  UNL1        0.0096
     13 C          60.2100   93.6669    2.6237 C.3     1  UNL1        0.0000
     14 C          59.5350   92.4214    3.1165 C.3     1  UNL1        0.0005
     15 C          62.0274   85.8057   10.1275 C.2     1  UNL1        0.2509
     16 O          63.0853   84.9746    9.4643 O.2     1  UNL1       -0.2698
     17 N          61.8511   85.7469   11.6159 N.am    1  UNL1       -0.2606
     18 H          61.1567   86.2924   12.0513 H       1  UNL1        0.1571
     19 C          62.7327   84.8571   12.4411 C.ar    1  UNL1        0.1658
     20 N          63.7446   85.3102   13.4514 N.ar    1  UNL1       -0.2224
     21 C          64.3945   84.0910   14.0355 C.ar    1  UNL1        0.1079
     22 C          63.7843   82.8843   13.3862 C.ar    1  UNL1        0.0588
     23 S          62.7573   83.3577   12.4008 S.2     1  UNL1       -0.0508
@<TRIPOS>BOND
     1    13    14    1
     2    14    12    1
     3    12    11    1
     4    11     7    1
     5     7     8    2
     6     7     9   am
     7     9     1    1
     8     1     2   ar
     9     2     3   ar
    10     3     4   ar
    11     4    15    1
    12    15    16    2
    13    15    17   am
    14    17    19    1
    15    19    20   ar
    16    20    21   ar
    17    21    22   ar
    18    22    23   ar
    19     4     5   ar
    20     5     6   ar
    21     6     1   ar
    22    23    19   ar
    23     9    10    1
    24    17    18    1
@<TRIPOS>MOLECULE
*****
 23 24 0 0 0
SMALL
GASTEIGER

@<TRIPOS>ATOM
      1 C          64.9402   90.8307   13.5204 C.ar    1  UNL1        0.0503
      2 C          64.4981   89.4562   13.9270 C.ar    1  UNL1        0.0148
      3 C          63.4482   88.7398   13.1306 C.ar    1  UNL1        0.0058
      4 C          62.8403   89.3978   11.9275 C.ar    1  UNL1        0.0538
      5 C          63.2823   90.7722   11.5209 C.ar    1  UNL1        0.0058
      6 C          64.3323   91.4887   12.3173 C.ar    1  UNL1        0.0148
      7 C          65.6408   92.1555   15.6426 C.2     1  UNL1        0.2261
      8 O          64.2414   92.0475   16.1720 O.2     1  UNL1       -0.2748
      9 N          65.9901   91.5471   14.3168 N.am    1  UNL1       -0.2839
     10 H          66.9085   91.6180   13.9694 H       1  UNL1        0.1549
     11 C          66.6907   92.8720   16.4390 C.3     1  UNL1        0.0854
     12 C          67.8400   93.5355   15.7396 C.3     1  UNL1        0.0096
     13 C          69.4149   92.2197   14.1465 C.3     1  UNL1        0.0000
     14 C          69.1135   92.7783   15.5055 C.3     1  UNL1        0.0005
     15 C          61.7903   88.6813   11.1311 C.2     1  UNL1        0.2509
     16 O          60.5625   88.1535   11.8120 O.2     1  UNL1       -0.2698
     17 N          61.9683   88.4927    9.6537 N.am    1  UNL1       -0.2606
     18 H          62.7742   88.8391    9.2068 H       1  UNL1        0.1571
     19 C          60.9183   87.7762    8.8573 C.ar    1  UNL1        0.1658
     20 N          60.8839   86.3053    8.5652 N.ar    1  UNL1       -0.2224
     21 C          59.6628   86.0249    7.7405 C.ar    1  UNL1        0.1079
     22 C          58.9424   87.3225    7.5229 C.ar    1  UNL1        0.0588
     23 S          59.7183   88.4049    8.2131 S.2     1  UNL1       -0.0508
@<TRIPOS>BOND
     1    13    14    1
     2    14    12    1
     3    12    11    1
     4    11     7    1
     5     7     8    2
     6     7     9   am
     7     9     1    1
     8     1     2   ar
     9     2     3   ar
    10     3     4   ar
    11     4    15    1
    12    15    16    2
    13    15    17   am
    14    17    19    1
    15    19    20   ar
    16    20    21   ar
    17    21    22   ar
    18    22    23   ar
    19     4     5   ar
    20     5     6   ar
    21     6     1   ar
    22    23    19   ar
    23     9    10    1
    24    17    18    1
@<TRIPOS>MOLECULE
*****
 23 24 0 0 0
SMALL
GASTEIGER

@<TRIPOS>ATOM
      1 C          64.3137   88.7855   14.0657 C.ar    1  UNL1        0.0503
      2 C          63.5161   88.5333   12.8207 C.ar    1  UNL1        0.0148
      3 C          63.0689   87.1413   12.4854 C.ar    1  UNL1        0.0058
      4 C          63.4194   86.0015   13.3953 C.ar    1  UNL1        0.0538
      5 C          64.2171   86.2536   14.6403 C.ar    1  UNL1        0.0058
      6 C          64.6642   87.6456   14.9755 C.ar    1  UNL1        0.0148
      7 C          64.1921   90.8801   15.5979 C.2     1  UNL1        0.2261
      8 O          63.1762   90.1907   16.4597 O.2     1  UNL1       -0.2748
      9 N          64.7608   90.1775   14.4009 N.am    1  UNL1       -0.2839
     10 H          65.4276   90.6300   13.8353 H       1  UNL1        0.1549
     11 C          64.6392   92.2721   15.9331 C.3     1  UNL1        0.0854
     12 C          66.0996   92.5706   16.1018 C.3     1  UNL1        0.0096
     13 C          67.8649   92.1479   14.2430 C.3     1  UNL1        0.0000
     14 C          66.9031   93.0667   14.9364 C.3     1  UNL1        0.0005
     15 C          62.9723   84.6095   13.0600 C.2     1  UNL1        0.2509
     16 O          62.4102   84.3088   11.7023 O.2     1  UNL1       -0.2698
     17 N          63.0873   83.5181   14.0826 N.am    1  UNL1       -0.2606
     18 H          63.4563   83.7154   14.9737 H       1  UNL1        0.1571
     19 C          62.6402   82.1261   13.7474 C.ar    1  UNL1        0.1658
     20 N          61.4348   81.4289   14.3050 N.ar    1  UNL1       -0.2224
     21 C          61.3696   80.0587   13.6979 C.ar    1  UNL1        0.1079
     22 C          62.5347   79.9091   12.7651 C.ar    1  UNL1        0.0588
     23 S          63.3200   81.1868   12.7956 S.2     1  UNL1       -0.0508
@<TRIPOS>BOND
     1    13    14    1
     2    14    12    1
     3    12    11    1
     4    11     7    1
     5     7     8    2
     6     7     9   am
     7     9     1    1
     8     1     2   ar
     9     2     3   ar
    10     3     4   ar
    11     4    15    1
    12    15    16    2
    13    15    17   am
    14    17    19    1
    15    19    20   ar
    16    20    21   ar
    17    21    22   ar
    18    22    23   ar
    19     4     5   ar
    20     5     6   ar
    21     6     1   ar
    22    23    19   ar
    23     9    10    1
    24    17    18    1
@<TRIPOS>MOLECULE
*****
 23 24 0 0 0
SMALL
GASTEIGER

@<TRIPOS>ATOM
      1 C          63.0020   86.1018   12.8669 C.ar    1  UNL1        0.0503
      2 C          62.7288   87.3060   12.0153 C.ar    1  UNL1        0.0148
      3 C          63.2402   88.6525   12.4341 C.ar    1  UNL1        0.0058
      4 C          64.0246   88.7948   13.7047 C.ar    1  UNL1        0.0538
      5 C          64.2977   87.5907   14.5564 C.ar    1  UNL1        0.0058
      6 C          63.7864   86.2442   14.1375 C.ar    1  UNL1        0.0148
      7 C          63.4306   83.5895   12.3624 C.2     1  UNL1        0.2261
      8 O          64.8820   83.7702   12.6955 O.2     1  UNL1       -0.2748
      9 N          62.4906   84.7553   12.4481 N.am    1  UNL1       -0.2839
     10 H          61.5381   84.6367   12.2294 H       1  UNL1        0.1549
     11 C          62.9193   82.2430   11.9435 C.3     1  UNL1        0.0854
     12 C          63.2185   81.0339   12.7793 C.3     1  UNL1        0.0096
     13 C          60.9882   80.9678   14.1101 C.3     1  UNL1        0.0000
     14 C          62.0968   80.2524   13.3965 C.3     1  UNL1        0.0005
     15 C          64.5359   90.1413   14.1236 C.2     1  UNL1        0.2509
     16 O          63.5871   91.1681   14.6671 O.2     1  UNL1       -0.2698
     17 N          65.9961   90.4611   13.9989 N.am    1  UNL1       -0.2606
     18 H          66.6189   89.7872   13.6421 H       1  UNL1        0.1571
     19 C          66.5074   91.8076   14.4178 C.ar    1  UNL1        0.1658
     20 N          66.0751   93.1291   13.8549 N.ar    1  UNL1       -0.2224
     21 C          66.8414   94.2073   14.5623 C.ar    1  UNL1        0.1079
     22 C          67.7473   93.5522   15.5624 C.ar    1  UNL1        0.0588
     23 S          67.5409   92.0691   15.4731 S.2     1  UNL1       -0.0508
@<TRIPOS>BOND
     1    13    14    1
     2    14    12    1
     3    12    11    1
     4    11     7    1
     5     7     8    2
     6     7     9   am
     7     9     1    1
     8     1     2   ar
     9     2     3   ar
    10     3     4   ar
    11     4    15    1
    12    15    16    2
    13    15    17   am
    14    17    19    1
    15    19    20   ar
    16    20    21   ar
    17    21    22   ar
    18    22    23   ar
    19     4     5   ar
    20     5     6   ar
    21     6     1   ar
    22    23    19   ar
    23     9    10    1
    24    17    18    1
@<TRIPOS>MOLECULE
*****
 23 24 0 0 0
SMALL
GASTEIGER

@<TRIPOS>ATOM
      1 C          61.8483   88.2950   10.8292 C.ar    1  UNL1        0.0503
      2 C          61.8154   89.7868   10.6771 C.ar    1  UNL1        0.0148
      3 C          62.6421   90.6514   11.5821 C.ar    1  UNL1        0.0058
      4 C          63.5017   90.0242   12.6392 C.ar    1  UNL1        0.0538
      5 C          63.5346   88.5323   12.7913 C.ar    1  UNL1        0.0058
      6 C          62.7079   87.6677   11.8863 C.ar    1  UNL1        0.0148
      7 C          60.2926   88.0406    8.7640 C.2     1  UNL1        0.2261
      8 O          60.3902   89.5156    8.5088 O.2     1  UNL1       -0.2748
      9 N          61.0216   87.4303    9.9242 N.am    1  UNL1       -0.2839
     10 H          60.9575   86.4623   10.0917 H       1  UNL1        0.1549
     11 C          59.4659   87.1760    7.8590 C.3     1  UNL1        0.0854
     12 C          59.9184   85.7835    7.5329 C.3     1  UNL1        0.0096
     13 C          61.8006   84.5193    6.2645 C.3     1  UNL1        0.0000
     14 C          61.3754   85.4996    7.3171 C.3     1  UNL1        0.0005
     15 C          64.3284   90.8888   13.5442 C.2     1  UNL1        0.2509
     16 O          63.7371   91.4267   14.8134 O.2     1  UNL1       -0.2698
     17 N          65.7463   91.2154   13.1800 N.am    1  UNL1       -0.2606
     18 H          66.1344   90.8623   12.3470 H       1  UNL1        0.1571
     19 C          66.5730   92.0800   14.0850 C.ar    1  UNL1        0.1658
     20 N          66.6210   93.5791   14.0703 N.ar    1  UNL1       -0.2224
     21 C          67.5745   94.0229   15.1398 C.ar    1  UNL1        0.1079
     22 C          68.1159   92.7980   15.8156 C.ar    1  UNL1        0.0588
     23 S          67.4969   91.5972   15.1637 S.2     1  UNL1       -0.0508
@<TRIPOS>BOND
     1    13    14    1
     2    14    12    1
     3    12    11    1
     4    11     7    1
     5     7     8    2
     6     7     9   am
     7     9     1    1
     8     1     2   ar
     9     2     3   ar
    10     3     4   ar
    11     4    15    1
    12    15    16    2
    13    15    17   am
    14    17    19    1
    15    19    20   ar
    16    20    21   ar
    17    21    22   ar
    18    22    23   ar
    19     4     5   ar
    20     5     6   ar
    21     6     1   ar
    22    23    19   ar
    23     9    10    1
    24    17    18    1
@<TRIPOS>MOLECULE
*****
 23 24 0 0 0
SMALL
GASTEIGER

@<TRIPOS>ATOM
      1 C          60.7417   88.2624    9.1062 C.ar    1  UNL1        0.0503
      2 C          61.5205   87.1023    8.5607 C.ar    1  UNL1        0.0148
      3 C          62.0169   86.0308    9.4856 C.ar    1  UNL1        0.0058
      4 C          61.7346   86.1195   10.9561 C.ar    1  UNL1        0.0538
      5 C          60.9559   87.2797   11.5017 C.ar    1  UNL1        0.0058
      6 C          60.4595   88.3511   10.5767 C.ar    1  UNL1        0.0148
      7 C          59.1570   89.0284    7.1952 C.2     1  UNL1        0.2261
      8 O          58.5650   87.6514    7.1342 O.2     1  UNL1       -0.2748
      9 N          60.2453   89.3338    8.1812 N.am    1  UNL1       -0.2839
     10 H          60.6338   90.2376    8.2213 H       1  UNL1        0.1549
     11 C          58.6605   90.0998    6.2703 C.3     1  UNL1        0.0854
     12 C          59.6168   90.7974    5.3489 C.3     1  UNL1        0.0096
     13 C          60.0719   92.6195    3.5536 C.3     1  UNL1        0.0000
     14 C          59.1787   92.0207    4.5994 C.3     1  UNL1        0.0005
     15 C          62.2311   85.0481   11.8811 C.2     1  UNL1        0.2509
     16 O          62.6659   85.4009   13.2727 O.2     1  UNL1       -0.2698
     17 N          62.2927   83.6239   11.4146 N.am    1  UNL1       -0.2606
     18 H          62.0073   83.3923   10.5012 H       1  UNL1        0.1571
     19 C          62.7891   82.5524   12.3395 C.ar    1  UNL1        0.1658
     20 N          61.9389   81.5614   13.0778 N.ar    1  UNL1       -0.2224
     21 C          62.8472   80.6804   13.8832 C.ar    1  UNL1        0.1079
     22 C          64.2589   81.1269   13.6427 C.ar    1  UNL1        0.0588
     23 S          64.2231   82.2839   12.6887 S.2     1  UNL1       -0.0508
@<TRIPOS>BOND
     1    13    14    1
     2    14    12    1
     3    12    11    1
     4    11     7    1
     5     7     8    2
     6     7     9   am
     7     9     1    1
     8     1     2   ar
     9     2     3   ar
    10     3     4   ar
    11     4    15    1
    12    15    16    2
    13    15    17   am
    14    17    19    1
    15    19    20   ar
    16    20    21   ar
    17    21    22   ar
    18    22    23   ar
    19     4     5   ar
    20     5     6   ar
    21     6     1   ar
    22    23    19   ar
    23     9    10    1
    24    17    18    1
