@<TRIPOS>MOLECULE
*****
 33 35 0 0 0
SMALL
GASTEIGER

@<TRIPOS>ATOM
      1 C          64.4177   89.0036   14.2173 C.ar    1  UNL1        0.0594
      2 C          64.7848   87.9757   15.2463 C.ar    1  UNL1        0.0164
      3 C          64.4242   86.5359   15.0298 C.ar    1  UNL1        0.0181
      4 C          63.6968   86.1239   13.7844 C.ar    1  UNL1        0.0758
      5 C          63.3298   87.1517   12.7554 C.ar    1  UNL1        0.1546
      6 F          62.6023   86.7397   11.5100 F       1  UNL1       -0.2028
      7 C          63.6903   88.5916   12.9719 C.ar    1  UNL1        0.0459
      8 N          63.3363   84.6840   13.5680 N.pl3   1  UNL1       -0.3025
      9 C          62.6966   83.9909   14.7345 C.3     1  UNL1        0.1096
     10 C          62.2258   82.5702   14.8348 C.3     1  UNL1        0.1092
     11 N          62.2784   81.4918   13.7937 N.3     1  UNL1       -0.2249
     12 N          62.8149   81.5676   12.3949 N.am    1  UNL1       -0.2207
     13 C          62.7228   80.3032   11.5932 C.2     1  UNL1        0.2686
     14 O          62.1228   79.0708   12.2024 O.2     1  UNL1       -0.2709
     15 C          63.4312   82.7406   11.6919 C.3     1  UNL1        0.1327
     16 C          63.6632   84.1275   12.2141 C.3     1  UNL1        0.1140
     17 H          61.3080   81.1992   13.6796 H       1  UNL1        0.1453
     18 C          63.2309   80.2712   10.1821 C.3     1  UNL1        0.2245
     19 O          62.9041   79.1076    9.2936 O.3     1  UNL1       -0.3736
     20 H          63.3313   78.3078    9.6381 H       1  UNL1        0.2111
     21 C          65.7383   92.6525   14.1358 C.3     1  UNL1        0.2101
     22 C          65.6461   91.2790   13.5399 C.3     1  UNL1        0.1468
     23 N          64.7782   90.4434   14.4337 N.am    1  UNL1       -0.2212
     24 C          64.3341   91.3005   15.5818 C.2     1  UNL1        0.4088
     25 O          63.4516   90.8683   16.7150 O.2     1  UNL1       -0.2258
     26 O          64.9275   92.6658   15.3976 O.3     1  UNL1       -0.4345
     27 C          66.5066   93.8096   13.5691 C.3     1  UNL1        0.1358
     28 N          66.1092   94.3988   12.2482 N.am    1  UNL1       -0.2954
     29 H          65.3772   95.0555   12.2023 H       1  UNL1        0.1502
     30 C          66.8272   93.9875   10.9970 C.2     1  UNL1        0.2296
     31 S          66.8472   94.9024    9.8085 S.2     1  UNL1        0.0058
     32 C          68.3010   92.2792    9.7088 C.3     1  UNL1        0.2545
     33 O          67.5251   92.6613   10.9344 O.3     1  UNL1       -0.4543
@<TRIPOS>BOND
     1    32    33    1
     2    33    30    1
     3    30    31    2
     4    30    28    1
     5    28    27    1
     6    21    27    1
     7    21    22    1
     8    22    23    1
     9    23     1    1
    10     1     2   ar
    11     2     3   ar
    12     3     4   ar
    13     4     8    1
    14     8     9    1
    15     9    10    1
    16    10    11    1
    17    11    12    1
    18    12    13   am
    19    13    14    2
    20    13    18    1
    21    18    19    1
    22    12    15    1
    23    15    16    1
    24     4     5   ar
    25     5     6    1
    26     5     7   ar
    27    23    24   am
    28    24    25    2
    29    24    26    1
    30    26    21    1
    31     7     1   ar
    32    16     8    1
    33    28    29    1
    34    11    17    1
    35    19    20    1
@<TRIPOS>MOLECULE
*****
 33 35 0 0 0
SMALL
GASTEIGER

@<TRIPOS>ATOM
      1 C          64.4626   88.8609   14.2922 C.ar    1  UNL1        0.0594
      2 C          64.9189   87.7790   15.2258 C.ar    1  UNL1        0.0164
      3 C          64.6077   86.3439   14.9197 C.ar    1  UNL1        0.0181
      4 C          63.8404   85.9906   13.6802 C.ar    1  UNL1        0.0758
      5 C          63.3842   87.0724   12.7467 C.ar    1  UNL1        0.1546
      6 F          62.6168   86.7192   11.5072 F       1  UNL1       -0.2028
      7 C          63.6953   88.5076   13.0527 C.ar    1  UNL1        0.0459
      8 N          63.5293   84.5555   13.3742 N.pl3   1  UNL1       -0.3025
      9 C          64.3146   83.9445   12.2516 C.3     1  UNL1        0.1096
     10 C          64.2386   82.5481   11.7088 C.3     1  UNL1        0.1092
     11 N          63.3587   81.4181   12.1545 N.3     1  UNL1       -0.2249
     12 N          62.3374   81.4051   13.2530 N.am    1  UNL1       -0.2207
     13 C          61.6141   80.1065   13.4539 C.2     1  UNL1        0.2686
     14 O          61.9324   78.9281   12.5822 O.2     1  UNL1       -0.2709
     15 C          61.9438   82.5191   14.1772 C.3     1  UNL1        0.1327
     16 C          62.4743   83.9211   14.2311 C.3     1  UNL1        0.1140
     17 H          64.0077   80.6705   12.4001 H       1  UNL1        0.1453
     18 C          60.5724   79.9864   14.5266 C.3     1  UNL1        0.2245
     19 O          59.1572   80.3978   14.2472 O.3     1  UNL1       -0.3736
     20 H          59.1230   81.3551   14.0942 H       1  UNL1        0.2111
     21 C          65.7373   92.5212   14.4972 C.3     1  UNL1        0.2101
     22 C          65.7410   91.1668   13.8526 C.3     1  UNL1        0.1468
     23 N          64.7737   90.2959   14.5982 N.am    1  UNL1       -0.2212
     24 C          64.1721   91.1122   15.7036 C.2     1  UNL1        0.4088
     25 O          63.1538   90.6366   16.6970 O.2     1  UNL1       -0.2258
     26 O          64.7677   92.4875   15.6411 O.3     1  UNL1       -0.4345
     27 C          66.5589   93.7021   14.0724 C.3     1  UNL1        0.1358
     28 N          66.3658   94.2990   12.7098 N.am    1  UNL1       -0.2954
     29 H          66.1269   95.2496   12.6182 H       1  UNL1        0.1502
     30 C          66.5369   93.4474   11.4868 C.2     1  UNL1        0.2296
     31 S          65.3794   93.2267   10.5587 S.2     1  UNL1        0.0058
     32 C          68.0743   92.0745    9.9053 C.3     1  UNL1        0.2545
     33 O          67.8654   92.8165   11.1921 O.3     1  UNL1       -0.4543
@<TRIPOS>BOND
     1    32    33    1
     2    33    30    1
     3    30    31    2
     4    30    28    1
     5    28    27    1
     6    21    27    1
     7    21    22    1
     8    22    23    1
     9    23     1    1
    10     1     2   ar
    11     2     3   ar
    12     3     4   ar
    13     4     8    1
    14     8     9    1
    15     9    10    1
    16    10    11    1
    17    11    12    1
    18    12    13   am
    19    13    14    2
    20    13    18    1
    21    18    19    1
    22    12    15    1
    23    15    16    1
    24     4     5   ar
    25     5     6    1
    26     5     7   ar
    27    23    24   am
    28    24    25    2
    29    24    26    1
    30    26    21    1
    31     7     1   ar
    32    16     8    1
    33    28    29    1
    34    11    17    1
    35    19    20    1
@<TRIPOS>MOLECULE
*****
 33 35 0 0 0
SMALL
GASTEIGER

@<TRIPOS>ATOM
      1 C          63.7377   87.8134   13.5338 C.ar    1  UNL1        0.0594
      2 C          64.2799   86.8085   14.5066 C.ar    1  UNL1        0.0164
      3 C          64.0552   85.3436   14.2750 C.ar    1  UNL1        0.0181
      4 C          63.2883   84.8836   13.0707 C.ar    1  UNL1        0.0758
      5 C          62.7461   85.8884   12.0980 C.ar    1  UNL1        0.1546
      6 F          61.9793   85.4284   10.8937 F       1  UNL1       -0.2028
      7 C          62.9708   87.3534   12.3295 C.ar    1  UNL1        0.0459
      8 N          63.0637   83.4187   12.8393 N.pl3   1  UNL1       -0.3025
      9 C          62.5586   82.6433   14.0199 C.3     1  UNL1        0.1096
     10 C          62.2389   81.1805   14.1106 C.3     1  UNL1        0.1092
     11 N          62.3453   80.1320   13.0434 N.3     1  UNL1       -0.2249
     12 N          62.7976   80.2871   11.6216 N.am    1  UNL1       -0.2207
     13 C          62.7915   79.0347   10.7963 C.2     1  UNL1        0.2686
     14 O          62.3510   77.7369   11.4060 O.2     1  UNL1       -0.2709
     15 C          63.2553   81.5292   10.9161 C.3     1  UNL1        0.1327
     16 C          63.3737   82.9229   11.4581 C.3     1  UNL1        0.1140
     17 H          61.4046   79.7444   12.9713 H       1  UNL1        0.1453
     18 C          63.2258   79.0800    9.3612 C.3     1  UNL1        0.2245
     19 O          64.2656   78.1210    8.8617 O.3     1  UNL1       -0.3736
     20 H          65.1133   78.3093    9.2939 H       1  UNL1        0.2111
     21 C          64.7875   91.3714   14.6754 C.3     1  UNL1        0.2101
     22 C          64.8701   89.8787   14.7976 C.3     1  UNL1        0.1468
     23 N          63.9623   89.2783   13.7653 N.am    1  UNL1       -0.2212
     24 C          63.3187   90.3999   13.0052 C.2     1  UNL1        0.4088
     25 O          62.3375   90.2536   11.8802 O.2     1  UNL1       -0.2258
     26 O          63.8287   91.6935   13.5678 O.3     1  UNL1       -0.4345
     27 C          65.5328   92.3672   15.5138 C.3     1  UNL1        0.1358
     28 N          66.4420   93.3660   14.8612 N.am    1  UNL1       -0.2954
     29 H          66.6068   94.2362   15.2911 H       1  UNL1        0.1502
     30 C          67.1001   93.0389   13.5535 C.2     1  UNL1        0.2296
     31 S          68.1577   91.9771   13.4910 S.2     1  UNL1        0.0058
     32 C          65.8792   93.0824   11.2606 C.3     1  UNL1        0.2545
     33 O          66.7004   93.7736   12.3084 O.3     1  UNL1       -0.4543
@<TRIPOS>BOND
     1    32    33    1
     2    33    30    1
     3    30    31    2
     4    30    28    1
     5    28    27    1
     6    21    27    1
     7    21    22    1
     8    22    23    1
     9    23     1    1
    10     1     2   ar
    11     2     3   ar
    12     3     4   ar
    13     4     8    1
    14     8     9    1
    15     9    10    1
    16    10    11    1
    17    11    12    1
    18    12    13   am
    19    13    14    2
    20    13    18    1
    21    18    19    1
    22    12    15    1
    23    15    16    1
    24     4     5   ar
    25     5     6    1
    26     5     7   ar
    27    23    24   am
    28    24    25    2
    29    24    26    1
    30    26    21    1
    31     7     1   ar
    32    16     8    1
    33    28    29    1
    34    11    17    1
    35    19    20    1
@<TRIPOS>MOLECULE
*****
 33 35 0 0 0
SMALL
GASTEIGER

@<TRIPOS>ATOM
      1 C          64.0600   88.4069   14.5525 C.ar    1  UNL1        0.0594
      2 C          63.4868   88.8259   13.2311 C.ar    1  UNL1        0.0164
      3 C          63.9709   90.0810   12.5676 C.ar    1  UNL1        0.0181
      4 C          65.0283   90.9173   13.2254 C.ar    1  UNL1        0.0758
      5 C          65.6015   90.4984   14.5467 C.ar    1  UNL1        0.1546
      6 F          66.6589   91.3346   15.2045 F       1  UNL1       -0.2028
      7 C          65.1174   89.2432   15.2103 C.ar    1  UNL1        0.0459
      8 N          65.5124   92.1724   12.5619 N.pl3   1  UNL1       -0.3025
      9 C          65.9054   93.2869   13.4857 C.3     1  UNL1        0.1096
     10 C          66.4226   94.6514   13.1381 C.3     1  UNL1        0.1092
     11 N          66.6744   95.2383   11.7809 N.3     1  UNL1       -0.2249
     12 N          66.4713   94.6058   10.4360 N.am    1  UNL1       -0.2207
     13 C          66.8193   95.4621    9.2548 C.2     1  UNL1        0.2686
     14 O          67.3336   96.8555    9.4641 O.2     1  UNL1       -0.2709
     15 C          65.9661   93.2300   10.1163 C.3     1  UNL1        0.1327
     16 C          65.5394   92.1471   11.0624 C.3     1  UNL1        0.1140
     17 H          67.6603   95.4992   11.7943 H       1  UNL1        0.1453
     18 C          66.6529   94.9251    7.8641 C.3     1  UNL1        0.2245
     19 O          66.0429   95.7843    6.7963 O.3     1  UNL1       -0.3736
     20 H          65.1144   95.9606    7.0144 H       1  UNL1        0.2111
     21 C          62.9314   84.8431   15.5966 C.3     1  UNL1        0.2101
     22 C          63.4539   85.8036   14.5697 C.3     1  UNL1        0.1468
     23 N          63.5759   87.1519   15.2160 N.am    1  UNL1       -0.2212
     24 C          63.1289   87.0245   16.6421 C.2     1  UNL1        0.4088
     25 O          63.0875   88.1299   17.6551 O.2     1  UNL1       -0.2258
     26 O          62.7305   85.5976   16.8773 O.3     1  UNL1       -0.4345
     27 C          62.6577   83.3842   15.3806 C.3     1  UNL1        0.1358
     28 N          63.6194   82.5502   14.5869 N.am    1  UNL1       -0.2954
     29 H          64.5509   82.4510   14.8895 H       1  UNL1        0.1502
     30 C          63.1616   81.8674   13.3322 C.2     1  UNL1        0.2296
     31 S          62.9680   80.3800   13.3157 S.2     1  UNL1        0.0058
     32 C          64.0101   82.9458   11.1262 C.3     1  UNL1        0.2545
     33 O          62.8975   82.6719   12.0942 O.3     1  UNL1       -0.4543
@<TRIPOS>BOND
     1    32    33    1
     2    33    30    1
     3    30    31    2
     4    30    28    1
     5    28    27    1
     6    21    27    1
     7    21    22    1
     8    22    23    1
     9    23     1    1
    10     1     2   ar
    11     2     3   ar
    12     3     4   ar
    13     4     8    1
    14     8     9    1
    15     9    10    1
    16    10    11    1
    17    11    12    1
    18    12    13   am
    19    13    14    2
    20    13    18    1
    21    18    19    1
    22    12    15    1
    23    15    16    1
    24     4     5   ar
    25     5     6    1
    26     5     7   ar
    27    23    24   am
    28    24    25    2
    29    24    26    1
    30    26    21    1
    31     7     1   ar
    32    16     8    1
    33    28    29    1
    34    11    17    1
    35    19    20    1
@<TRIPOS>MOLECULE
*****
 33 35 0 0 0
SMALL
GASTEIGER

@<TRIPOS>ATOM
      1 C          62.0014   89.5407   10.5886 C.ar    1  UNL1        0.0594
      2 C          62.5006   90.9436   10.4067 C.ar    1  UNL1        0.0164
      3 C          63.4933   91.5177   11.3737 C.ar    1  UNL1        0.0181
      4 C          63.9868   90.6891   12.5225 C.ar    1  UNL1        0.0758
      5 C          63.4877   89.2863   12.7044 C.ar    1  UNL1        0.1546
      6 F          63.9812   88.4577   13.8533 F       1  UNL1       -0.2028
      7 C          62.4950   88.7121   11.7375 C.ar    1  UNL1        0.0459
      8 N          64.9795   91.2633   13.4894 N.pl3   1  UNL1       -0.3025
      9 C          64.4604   91.5355   14.8702 C.3     1  UNL1        0.1096
     10 C          65.1936   92.1011   16.0504 C.3     1  UNL1        0.1092
     11 N          66.6268   92.5340   16.1411 N.3     1  UNL1       -0.2249
     12 N          67.6809   92.5084   15.0743 N.am    1  UNL1       -0.2207
     13 C          69.0326   93.0146   15.4826 C.2     1  UNL1        0.2686
     14 O          69.2589   93.5034   16.8825 O.2     1  UNL1       -0.2709
     15 C          67.5621   92.0434   13.6531 C.3     1  UNL1        0.1327
     16 C          66.3598   91.4893   12.9478 C.3     1  UNL1        0.1140
     17 H          67.0159   91.9722   16.8983 H       1  UNL1        0.1453
     18 C          70.1579   93.0319   14.4909 C.3     1  UNL1        0.2245
     19 O          70.2656   91.9479   13.4596 O.3     1  UNL1       -0.3736
     20 H          70.4482   91.1019   13.8976 H       1  UNL1        0.2111
     21 C          59.4295   88.7486    7.7917 C.3     1  UNL1        0.2101
     22 C          60.3417   89.7059    8.4999 C.3     1  UNL1        0.1468
     23 N          61.0088   88.9666    9.6217 N.am    1  UNL1       -0.2212
     24 C          60.5090   87.5524    9.6069 C.2     1  UNL1        0.4088
     25 O          60.9140   86.4641   10.5562 O.2     1  UNL1       -0.2258
     26 O          59.5329   87.4177    8.4758 O.3     1  UNL1       -0.4345
     27 C          58.5657   89.0664    6.6073 C.3     1  UNL1        0.1358
     28 N          59.0677   89.9930    5.5399 N.am    1  UNL1       -0.2954
     29 H          59.9166   89.8002    5.0800 H       1  UNL1        0.1502
     30 C          58.2763   91.2133    5.1731 C.2     1  UNL1        0.2296
     31 S          56.7793   91.1447    5.1074 S.2     1  UNL1        0.0058
     32 C          59.7896   92.6393    3.6155 C.3     1  UNL1        0.2545
     33 O          58.9819   92.5022    4.8721 O.3     1  UNL1       -0.4543
@<TRIPOS>BOND
     1    32    33    1
     2    33    30    1
     3    30    31    2
     4    30    28    1
     5    28    27    1
     6    21    27    1
     7    21    22    1
     8    22    23    1
     9    23     1    1
    10     1     2   ar
    11     2     3   ar
    12     3     4   ar
    13     4     8    1
    14     8     9    1
    15     9    10    1
    16    10    11    1
    17    11    12    1
    18    12    13   am
    19    13    14    2
    20    13    18    1
    21    18    19    1
    22    12    15    1
    23    15    16    1
    24     4     5   ar
    25     5     6    1
    26     5     7   ar
    27    23    24   am
    28    24    25    2
    29    24    26    1
    30    26    21    1
    31     7     1   ar
    32    16     8    1
    33    28    29    1
    34    11    17    1
    35    19    20    1
@<TRIPOS>MOLECULE
*****
 33 35 0 0 0
SMALL
GASTEIGER

@<TRIPOS>ATOM
      1 C          56.5404   94.8580   -4.2103 C.ar    1  UNL1        0.0594
      2 C          57.6499   95.8136   -3.8849 C.ar    1  UNL1        0.0164
      3 C          58.6284   95.4844   -2.7967 C.ar    1  UNL1        0.0181
      4 C          58.4974   94.1995   -2.0339 C.ar    1  UNL1        0.0758
      5 C          57.3880   93.2439   -2.3592 C.ar    1  UNL1        0.1546
      6 F          57.2570   91.9590   -1.5963 F       1  UNL1       -0.2028
      7 C          56.4094   93.5731   -3.4474 C.ar    1  UNL1        0.0459
      8 N          59.4759   93.8703   -0.9457 N.pl3   1  UNL1       -0.3025
      9 C          58.8780   93.3928    0.3445 C.3     1  UNL1        0.1096
     10 C          59.5795   92.9892    1.6076 C.3     1  UNL1        0.1092
     11 N          61.0519   92.9634    1.8922 N.3     1  UNL1       -0.2249
     12 N          62.1867   93.3349    0.9843 N.am    1  UNL1       -0.2207
     13 C          63.5606   93.1995    1.5708 C.2     1  UNL1        0.2686
     14 O          63.7298   92.7183    2.9814 O.2     1  UNL1       -0.2709
     15 C          62.1292   93.8239   -0.4326 C.3     1  UNL1        0.1327
     16 C          60.9227   94.0622   -1.2915 C.3     1  UNL1        0.1140
     17 H          61.2437   91.9978    2.1590 H       1  UNL1        0.1453
     18 C          64.7653   93.5454    0.7467 C.3     1  UNL1        0.2245
     19 O          65.9410   92.6145    0.7095 O.3     1  UNL1       -0.3736
     20 H          66.3508   92.5758    1.5879 H       1  UNL1        0.2111
     21 C          53.5839   95.9757   -6.4630 C.3     1  UNL1        0.2101
     22 C          54.2226   95.8368   -5.1129 C.3     1  UNL1        0.1468
     23 N          55.5619   95.1872   -5.2984 N.am    1  UNL1       -0.2212
     24 C          55.7509   94.9247   -6.7631 C.2     1  UNL1        0.4088
     25 O          56.9515   94.2869   -7.3968 O.2     1  UNL1       -0.2258
     26 O          54.5284   95.4120   -7.4828 O.3     1  UNL1       -0.4345
     27 C          52.2371   96.5734   -6.7439 C.3     1  UNL1        0.1358
     28 N          51.0071   95.7176   -6.6728 N.am    1  UNL1       -0.2954
     29 H          50.9458   94.8979   -7.2146 H       1  UNL1        0.1502
     30 C          49.8707   96.1109   -5.7762 C.2     1  UNL1        0.2296
     31 S          48.4550   95.9500   -6.2454 S.2     1  UNL1        0.0058
     32 C          50.9145   95.8479   -3.4117 C.3     1  UNL1        0.2545
     33 O          50.1498   96.6649   -4.4107 O.3     1  UNL1       -0.4543
@<TRIPOS>BOND
     1    32    33    1
     2    33    30    1
     3    30    31    2
     4    30    28    1
     5    28    27    1
     6    21    27    1
     7    21    22    1
     8    22    23    1
     9    23     1    1
    10     1     2   ar
    11     2     3   ar
    12     3     4   ar
    13     4     8    1
    14     8     9    1
    15     9    10    1
    16    10    11    1
    17    11    12    1
    18    12    13   am
    19    13    14    2
    20    13    18    1
    21    18    19    1
    22    12    15    1
    23    15    16    1
    24     4     5   ar
    25     5     6    1
    26     5     7   ar
    27    23    24   am
    28    24    25    2
    29    24    26    1
    30    26    21    1
    31     7     1   ar
    32    16     8    1
    33    28    29    1
    34    11    17    1
    35    19    20    1
@<TRIPOS>MOLECULE
*****
 33 35 0 0 0
SMALL
GASTEIGER

@<TRIPOS>ATOM
      1 C          62.2303   89.1713   11.4517 C.ar    1  UNL1        0.0594
      2 C          62.5479   90.6115   11.1778 C.ar    1  UNL1        0.0164
      3 C          63.5452   91.3353   12.0331 C.ar    1  UNL1        0.0181
      4 C          64.2249   90.6190   13.1622 C.ar    1  UNL1        0.0758
      5 C          63.9072   89.1788   13.4361 C.ar    1  UNL1        0.1546
      6 F          64.5868   88.4625   14.5653 F       1  UNL1       -0.2028
      7 C          62.9099   88.4550   12.5808 C.ar    1  UNL1        0.0459
      8 N          65.2221   91.3429   14.0175 N.pl3   1  UNL1       -0.3025
      9 C          64.7287   91.7785   15.3655 C.3     1  UNL1        0.1096
     10 C          65.4723   92.5143   16.4406 C.3     1  UNL1        0.1092
     11 N          66.8927   92.9961   16.4332 N.3     1  UNL1       -0.2249
     12 N          67.9205   92.8612   15.3491 N.am    1  UNL1       -0.2207
     13 C          69.2649   93.4549   15.6493 C.2     1  UNL1        0.2686
     14 O          69.5099   94.1290   16.9667 O.2     1  UNL1       -0.2709
     15 C          67.7817   92.2112   14.0044 C.3     1  UNL1        0.1327
     16 C          66.5807   91.5354   13.4119 C.3     1  UNL1        0.1140
     17 H          67.3181   92.5496   17.2456 H       1  UNL1        0.1453
     18 C          70.3644   93.3745   14.6320 C.3     1  UNL1        0.2245
     19 O          70.4788   92.1702   13.7449 O.3     1  UNL1       -0.3736
     20 H          70.6974   91.3926   14.2820 H       1  UNL1        0.2111
     21 C          60.2156   87.2561    8.7428 C.3     1  UNL1        0.2101
     22 C          61.4838   87.8965    9.2240 C.3     1  UNL1        0.1468
     23 N          61.2330   88.4475   10.5964 N.am    1  UNL1       -0.2212
     24 C          59.8099   88.1476   10.9634 C.2     1  UNL1        0.4088
     25 O          59.1342   88.5188   12.2501 O.2     1  UNL1       -0.2258
     26 O          59.1811   87.4112    9.8178 O.3     1  UNL1       -0.4345
     27 C          60.0169   86.5793    7.4190 C.3     1  UNL1        0.1358
     28 N          60.4479   85.1546    7.2328 N.am    1  UNL1       -0.2954
     29 H          59.8212   84.4211    7.4291 H       1  UNL1        0.1502
     30 C          61.8336   84.8475    6.7474 C.2     1  UNL1        0.2296
     31 S          62.0328   84.1926    5.4127 S.2     1  UNL1        0.0058
     32 C          63.0799   84.7388    9.0244 C.3     1  UNL1        0.2545
     33 O          63.0199   85.1953    7.5967 O.3     1  UNL1       -0.4543
@<TRIPOS>BOND
     1    32    33    1
     2    33    30    1
     3    30    31    2
     4    30    28    1
     5    28    27    1
     6    21    27    1
     7    21    22    1
     8    22    23    1
     9    23     1    1
    10     1     2   ar
    11     2     3   ar
    12     3     4   ar
    13     4     8    1
    14     8     9    1
    15     9    10    1
    16    10    11    1
    17    11    12    1
    18    12    13   am
    19    13    14    2
    20    13    18    1
    21    18    19    1
    22    12    15    1
    23    15    16    1
    24     4     5   ar
    25     5     6    1
    26     5     7   ar
    27    23    24   am
    28    24    25    2
    29    24    26    1
    30    26    21    1
    31     7     1   ar
    32    16     8    1
    33    28    29    1
    34    11    17    1
    35    19    20    1
@<TRIPOS>MOLECULE
*****
 33 35 0 0 0
SMALL
GASTEIGER

@<TRIPOS>ATOM
      1 C          63.5873   87.0663   13.7956 C.ar    1  UNL1        0.0594
      2 C          63.1423   87.7759   12.5512 C.ar    1  UNL1        0.0164
      3 C          63.5986   89.1798   12.2846 C.ar    1  UNL1        0.0181
      4 C          64.4998   89.8739   13.2623 C.ar    1  UNL1        0.0758
      5 C          64.9448   89.1643   14.5067 C.ar    1  UNL1        0.1546
      6 F          65.8460   89.8585   15.4844 F       1  UNL1       -0.2028
      7 C          64.4885   87.7604   14.7733 C.ar    1  UNL1        0.0459
      8 N          64.9560   91.2778   12.9957 N.pl3   1  UNL1       -0.3025
      9 C          65.5527   92.0016   14.1662 C.3     1  UNL1        0.1096
     10 C          66.0960   93.3986   14.2239 C.3     1  UNL1        0.1092
     11 N          66.1767   94.4167   13.1255 N.3     1  UNL1       -0.2249
     12 N          65.7342   94.2895   11.6979 N.am    1  UNL1       -0.2207
     13 C          65.9532   95.4990   10.8383 C.2     1  UNL1        0.2686
     14 O          66.5795   96.7306   11.4222 O.2     1  UNL1       -0.2709
     15 C          65.1015   93.1125   11.0162 C.3     1  UNL1        0.1327
     16 C          64.7552   91.7722   11.5939 C.3     1  UNL1        0.1140
     17 H          67.1679   94.6502   13.0659 H       1  UNL1        0.1453
     18 C          65.5459   95.4770    9.3948 C.3     1  UNL1        0.2245
     19 O          64.7217   96.5963    8.8309 O.3     1  UNL1       -0.3736
     20 H          63.8454   96.5939    9.2468 H       1  UNL1        0.2111
     21 C          62.5792   83.3182   13.7611 C.3     1  UNL1        0.2101
     22 C          63.1060   84.5397   13.0678 C.3     1  UNL1        0.1468
     23 N          63.1310   85.6625   14.0622 N.am    1  UNL1       -0.2212
     24 C          62.6197   85.1350   15.3700 C.2     1  UNL1        0.4088
     25 O          62.4749   85.9186   16.6407 O.2     1  UNL1       -0.2258
     26 O          62.2787   83.6861   15.1838 O.3     1  UNL1       -0.4345
     27 C          62.3867   81.9663   13.1405 C.3     1  UNL1        0.1358
     28 N          63.4818   81.3564   12.3165 N.am    1  UNL1       -0.2954
     29 H          64.1913   80.8310   12.7522 H       1  UNL1        0.1502
     30 C          63.4960   81.5471   10.8288 C.2     1  UNL1        0.2296
     31 S          64.0193   82.8242   10.2413 S.2     1  UNL1        0.0058
     32 C          62.8598   79.0578   10.4438 C.3     1  UNL1        0.2545
     33 O          62.9868   80.4608    9.9286 O.3     1  UNL1       -0.4543
@<TRIPOS>BOND
     1    32    33    1
     2    33    30    1
     3    30    31    2
     4    30    28    1
     5    28    27    1
     6    21    27    1
     7    21    22    1
     8    22    23    1
     9    23     1    1
    10     1     2   ar
    11     2     3   ar
    12     3     4   ar
    13     4     8    1
    14     8     9    1
    15     9    10    1
    16    10    11    1
    17    11    12    1
    18    12    13   am
    19    13    14    2
    20    13    18    1
    21    18    19    1
    22    12    15    1
    23    15    16    1
    24     4     5   ar
    25     5     6    1
    26     5     7   ar
    27    23    24   am
    28    24    25    2
    29    24    26    1
    30    26    21    1
    31     7     1   ar
    32    16     8    1
    33    28    29    1
    34    11    17    1
    35    19    20    1
