@<TRIPOS>MOLECULE
*****
 28 31 0 0 0
SMALL
GASTEIGER

@<TRIPOS>ATOM
      1 C          64.4420   86.6176   14.9469 C.3     1  UNL1        0.0343
      2 C          63.7722   87.1623   13.7202 C.ar    1  UNL1        0.0167
      3 C          63.6200   88.6128   13.3693 C.ar    1  UNL1        0.1178
      4 N          62.8907   88.6991   12.0613 N.ar    1  UNL1       -0.1638
      5 N          62.5922   87.3020   11.6040 N.ar    1  UNL1       -0.2291
      6 C          63.1369   86.3523   12.6292 C.ar    1  UNL1        0.0803
      7 C          61.8748   86.9216   10.3427 C.ar    1  UNL1        0.0933
      8 C          62.5778   86.1091    9.2959 C.ar    1  UNL1        0.0200
      9 C          61.8605   85.7287    8.0347 C.ar    1  UNL1        0.0016
     10 C          60.4402   86.1607    7.8203 C.ar    1  UNL1        0.0010
     11 C          59.7371   86.9731    8.8671 C.ar    1  UNL1        0.0129
     12 C          60.4545   87.3536   10.1283 C.ar    1  UNL1        0.0753
     13 CL         59.7515   88.1660   11.1750 Cl      1  UNL1       -0.0807
     14 C          63.0600   84.8553   12.5733 C.ar    1  UNL1        0.0175
     15 C          62.3922   84.0967   13.6816 C.ar    1  UNL1        0.0024
     16 C          62.3153   82.5997   13.6257 C.ar    1  UNL1        0.0114
     17 C          62.9062   81.8613   12.4614 C.ar    1  UNL1        0.0577
     18 CL         62.8293   80.3643   12.4055 Cl      1  UNL1       -0.0822
     19 C          63.5741   82.6200   11.3531 C.ar    1  UNL1        0.0114
     20 C          63.6510   84.1169   11.4090 C.ar    1  UNL1        0.0024
     21 C          64.1109   89.7731   14.1833 C.ar    1  UNL1        0.1192
     22 C          65.3100   90.6205   13.8768 C.ar    1  UNL1        0.0980
     23 N          65.4291   91.6608   14.9508 N.ar    1  UNL1       -0.3097
     24 C          64.3035   91.4564   15.9210 C.ar    1  UNL1        0.1785
     25 N          63.4888   90.2896   15.4466 N.ar    1  UNL1       -0.2223
     26 C          66.4878   92.7197   15.0391 C.3     1  UNL1        0.0871
     27 C          67.4695   92.7061   16.1732 C.3     1  UNL1        0.0245
     28 C          66.5650   93.7923   13.9932 C.3     1  UNL1        0.0245
@<TRIPOS>BOND
     1     1     2    1
     2     2     3   ar
     3     3    21    1
     4    21    22   ar
     5    22    23   ar
     6    23    26    1
     7    26    27    1
     8    26    28    1
     9    23    24   ar
    10    24    25   ar
    11     3     4   ar
    12     4     5   ar
    13     5     7    1
    14     7     8   ar
    15     8     9   ar
    16     9    10   ar
    17    10    11   ar
    18    11    12   ar
    19    12    13    1
    20     5     6   ar
    21     6    14    1
    22    14    15   ar
    23    15    16   ar
    24    16    17   ar
    25    17    18    1
    26    17    19   ar
    27    19    20   ar
    28     6     2   ar
    29    20    14   ar
    30    25    21   ar
    31    12     7   ar
@<TRIPOS>MOLECULE
*****
 28 31 0 0 0
SMALL
GASTEIGER

@<TRIPOS>ATOM
      1 C          64.0694   89.8493   13.7782 C.3     1  UNL1        0.0343
      2 C          64.2405   90.7629   12.6009 C.ar    1  UNL1        0.0167
      3 C          63.3994   90.7675   11.3588 C.ar    1  UNL1        0.1178
      4 N          63.9219   91.8397   10.4493 N.ar    1  UNL1       -0.1638
      5 N          65.0859   92.4978   11.1291 N.ar    1  UNL1       -0.2291
      6 C          65.2828   91.8323   12.4589 C.ar    1  UNL1        0.0803
      7 C          65.9085   93.6238   10.5763 C.ar    1  UNL1        0.0933
      8 C          65.4642   95.0432   10.7712 C.ar    1  UNL1        0.0200
      9 C          66.2868   96.1691   10.2183 C.ar    1  UNL1        0.0016
     10 C          67.5535   95.8756    9.4706 C.ar    1  UNL1        0.0010
     11 C          67.9978   94.4562    9.2757 C.ar    1  UNL1        0.0129
     12 C          67.1752   93.3303    9.8285 C.ar    1  UNL1        0.0753
     13 CL         67.6195   91.9109    9.6336 Cl      1  UNL1       -0.0807
     14 C          66.3368   92.1758   13.4693 C.ar    1  UNL1        0.0175
     15 C          67.7784   91.8795   13.1797 C.ar    1  UNL1        0.0024
     16 C          68.8325   92.2230   14.1901 C.ar    1  UNL1        0.0114
     17 C          68.4449   92.8628   15.4903 C.ar    1  UNL1        0.0577
     18 CL         69.4989   93.2063   16.5007 Cl      1  UNL1       -0.0822
     19 C          67.0032   93.1591   15.7799 C.ar    1  UNL1        0.0114
     20 C          65.9492   92.8156   14.7695 C.ar    1  UNL1        0.0024
     21 C          62.2396   89.8593   11.0760 C.ar    1  UNL1        0.1192
     22 C          62.0905   88.9659    9.8804 C.ar    1  UNL1        0.0980
     23 N          60.7840   88.2396   10.0047 N.ar    1  UNL1       -0.3097
     24 C          60.1257   88.6841   11.2771 C.ar    1  UNL1        0.1785
     25 N          61.0254   89.6852   11.9392 N.ar    1  UNL1       -0.2223
     26 C          60.2326   87.2436    9.0279 C.3     1  UNL1        0.0871
     27 C          60.8799   85.8983    8.8826 C.3     1  UNL1        0.0245
     28 C          59.0339   87.5928    8.1965 C.3     1  UNL1        0.0245
@<TRIPOS>BOND
     1     1     2    1
     2     2     3   ar
     3     3    21    1
     4    21    22   ar
     5    22    23   ar
     6    23    26    1
     7    26    27    1
     8    26    28    1
     9    23    24   ar
    10    24    25   ar
    11     3     4   ar
    12     4     5   ar
    13     5     7    1
    14     7     8   ar
    15     8     9   ar
    16     9    10   ar
    17    10    11   ar
    18    11    12   ar
    19    12    13    1
    20     5     6   ar
    21     6    14    1
    22    14    15   ar
    23    15    16   ar
    24    16    17   ar
    25    17    18    1
    26    17    19   ar
    27    19    20   ar
    28     6     2   ar
    29    20    14   ar
    30    25    21   ar
    31    12     7   ar
@<TRIPOS>MOLECULE
*****
 28 31 0 0 0
SMALL
GASTEIGER

@<TRIPOS>ATOM
      1 C          62.7898   89.6675   11.3729 C.3     1  UNL1        0.0343
      2 C          63.1019   88.4491   12.1903 C.ar    1  UNL1        0.0167
      3 C          63.7287   88.4385   13.5531 C.ar    1  UNL1        0.1178
      4 N          63.8562   87.0103   13.9935 N.ar    1  UNL1       -0.1638
      5 N          63.3083   86.1383   12.9029 N.ar    1  UNL1       -0.2291
      6 C          62.8421   87.0275   11.7885 C.ar    1  UNL1        0.0803
      7 C          63.2387   84.6400   12.9232 C.ar    1  UNL1        0.0933
      8 C          63.8744   83.8447   11.8216 C.ar    1  UNL1        0.0200
      9 C          63.8049   82.3465   11.8419 C.ar    1  UNL1        0.0016
     10 C          63.0997   81.6435   12.9638 C.ar    1  UNL1        0.0010
     11 C          62.4641   82.4388   14.0654 C.ar    1  UNL1        0.0129
     12 C          62.5336   83.9370   14.0451 C.ar    1  UNL1        0.0753
     13 CL         61.8980   84.7323   15.1467 Cl      1  UNL1       -0.0807
     14 C          62.2245   86.5747   10.4988 C.ar    1  UNL1        0.0175
     15 C          63.0556   85.8474    9.4838 C.ar    1  UNL1        0.0024
     16 C          62.4381   85.3946    8.1940 C.ar    1  UNL1        0.0114
     17 C          60.9892   85.6691    7.9192 C.ar    1  UNL1        0.0577
     18 CL         60.3717   85.2162    6.6294 Cl      1  UNL1       -0.0822
     19 C          60.1580   86.3964    8.9342 C.ar    1  UNL1        0.0114
     20 C          60.7756   86.8492   10.2239 C.ar    1  UNL1        0.0024
     21 C          64.1534   89.6444   14.3377 C.ar    1  UNL1        0.1192
     22 C          65.3320   90.5219   14.0365 C.ar    1  UNL1        0.0980
     23 N          65.3810   91.6043   15.0739 N.ar    1  UNL1       -0.3097
     24 C          64.2327   91.3956   16.0161 C.ar    1  UNL1        0.1785
     25 N          63.4739   90.1843   15.5611 N.ar    1  UNL1       -0.2223
     26 C          66.3995   92.7025   15.1548 C.3     1  UNL1        0.0871
     27 C          66.4685   93.7423   14.0759 C.3     1  UNL1        0.0245
     28 C          67.3492   92.7609   16.3145 C.3     1  UNL1        0.0245
@<TRIPOS>BOND
     1     1     2    1
     2     2     3   ar
     3     3    21    1
     4    21    22   ar
     5    22    23   ar
     6    23    26    1
     7    26    27    1
     8    26    28    1
     9    23    24   ar
    10    24    25   ar
    11     3     4   ar
    12     4     5   ar
    13     5     7    1
    14     7     8   ar
    15     8     9   ar
    16     9    10   ar
    17    10    11   ar
    18    11    12   ar
    19    12    13    1
    20     5     6   ar
    21     6    14    1
    22    14    15   ar
    23    15    16   ar
    24    16    17   ar
    25    17    18    1
    26    17    19   ar
    27    19    20   ar
    28     6     2   ar
    29    20    14   ar
    30    25    21   ar
    31    12     7   ar
@<TRIPOS>MOLECULE
*****
 28 31 0 0 0
SMALL
GASTEIGER

@<TRIPOS>ATOM
      1 C          63.3462   91.7473    9.5527 C.3     1  UNL1        0.0343
      2 C          63.8710   91.4361   10.9231 C.ar    1  UNL1        0.0167
      3 C          63.3873   90.3387   11.8242 C.ar    1  UNL1        0.1178
      4 N          64.1889   90.3920   13.0909 N.ar    1  UNL1       -0.1638
      5 N          65.1680   91.5223   12.9727 N.ar    1  UNL1       -0.2291
      6 C          64.9715   92.1675   11.6329 C.ar    1  UNL1        0.0803
      7 C          66.1680   91.9348   14.0118 C.ar    1  UNL1        0.0933
      8 C          65.7043   92.3419   15.3790 C.ar    1  UNL1        0.0200
      9 C          66.7043   92.7545   16.4182 C.ar    1  UNL1        0.0016
     10 C          68.1679   92.7599   16.0901 C.ar    1  UNL1        0.0010
     11 C          68.6316   92.3528   14.7229 C.ar    1  UNL1        0.0129
     12 C          67.6317   91.9402   13.6838 C.ar    1  UNL1        0.0753
     13 CL         68.0954   91.5331   12.3166 Cl      1  UNL1       -0.0807
     14 C          65.7404   93.3386   11.0970 C.ar    1  UNL1        0.0175
     15 C          66.5282   93.2014    9.8279 C.ar    1  UNL1        0.0024
     16 C          67.2971   94.3725    9.2920 C.ar    1  UNL1        0.0114
     17 C          67.2784   95.6809   10.0252 C.ar    1  UNL1        0.0577
     18 CL         68.0473   96.8520    9.4893 Cl      1  UNL1       -0.0822
     19 C          66.4906   95.8182   11.2943 C.ar    1  UNL1        0.0114
     20 C          65.7216   94.6471   11.8302 C.ar    1  UNL1        0.0024
     21 C          62.2940   89.3599   11.5132 C.ar    1  UNL1        0.1192
     22 C          62.2602   88.4172   10.3470 C.ar    1  UNL1        0.0980
     23 N          60.9879   87.6267   10.4268 N.ar    1  UNL1       -0.3097
     24 C          60.2354   88.0810   11.6423 C.ar    1  UNL1        0.1785
     25 N          61.0427   89.1522   12.3138 N.ar    1  UNL1       -0.2223
     26 C          60.5457   86.5679    9.4608 C.3     1  UNL1        0.0871
     27 C          59.3824   86.8232    8.5489 C.3     1  UNL1        0.0245
     28 C          61.2668   85.2537    9.4064 C.3     1  UNL1        0.0245
@<TRIPOS>BOND
     1     1     2    1
     2     2     3   ar
     3     3    21    1
     4    21    22   ar
     5    22    23   ar
     6    23    26    1
     7    26    27    1
     8    26    28    1
     9    23    24   ar
    10    24    25   ar
    11     3     4   ar
    12     4     5   ar
    13     5     7    1
    14     7     8   ar
    15     8     9   ar
    16     9    10   ar
    17    10    11   ar
    18    11    12   ar
    19    12    13    1
    20     5     6   ar
    21     6    14    1
    22    14    15   ar
    23    15    16   ar
    24    16    17   ar
    25    17    18    1
    26    17    19   ar
    27    19    20   ar
    28     6     2   ar
    29    20    14   ar
    30    25    21   ar
    31    12     7   ar
@<TRIPOS>MOLECULE
*****
 28 31 0 0 0
SMALL
GASTEIGER

@<TRIPOS>ATOM
      1 C          64.4451   87.1582   14.3027 C.3     1  UNL1        0.0343
      2 C          63.6935   87.5790   13.0746 C.ar    1  UNL1        0.0167
      3 C          63.5903   88.9767   12.5397 C.ar    1  UNL1        0.1178
      4 N          62.7463   88.9375   11.3004 N.ar    1  UNL1       -0.1638
      5 N          62.3278   87.5157   11.0693 N.ar    1  UNL1       -0.2291
      6 C          62.9132   86.6761   12.1658 C.ar    1  UNL1        0.0803
      7 C          61.4737   87.0205    9.9399 C.ar    1  UNL1        0.0933
      8 C          59.9958   87.2768    9.9490 C.ar    1  UNL1        0.0200
      9 C          59.1418   86.7816    8.8197 C.ar    1  UNL1        0.0016
     10 C          59.7657   86.0301    7.6813 C.ar    1  UNL1        0.0010
     11 C          61.2436   85.7737    7.6723 C.ar    1  UNL1        0.0129
     12 C          62.0976   86.2689    8.8016 C.ar    1  UNL1        0.0753
     13 CL         63.5755   86.0126    8.7925 Cl      1  UNL1       -0.0807
     14 C          62.7474   85.1939   12.3256 C.ar    1  UNL1        0.0175
     15 C          62.9441   84.2859   11.1480 C.ar    1  UNL1        0.0024
     16 C          62.7783   82.8037   11.3077 C.ar    1  UNL1        0.0114
     17 C          62.4159   82.2294   12.6451 C.ar    1  UNL1        0.0577
     18 CL         62.2501   80.7472   12.8049 Cl      1  UNL1       -0.0822
     19 C          62.2192   83.1374   13.8228 C.ar    1  UNL1        0.0114
     20 C          62.3850   84.6196   13.6631 C.ar    1  UNL1        0.0024
     21 C          64.2206   90.1988   13.1390 C.ar    1  UNL1        0.1192
     22 C          64.6108   90.3747   14.5766 C.ar    1  UNL1        0.0980
     23 N          65.2026   91.7442   14.7320 N.ar    1  UNL1       -0.3097
     24 C          65.1782   92.4147   13.3904 C.ar    1  UNL1        0.1785
     25 N          64.5713   91.4595   12.4058 N.ar    1  UNL1       -0.2223
     26 C          65.7269   92.3389   16.0054 C.3     1  UNL1        0.0871
     27 C          67.1702   92.7336   16.1103 C.3     1  UNL1        0.0245
     28 C          64.8078   92.5388   17.1739 C.3     1  UNL1        0.0245
@<TRIPOS>BOND
     1     1     2    1
     2     2     3   ar
     3     3    21    1
     4    21    22   ar
     5    22    23   ar
     6    23    26    1
     7    26    27    1
     8    26    28    1
     9    23    24   ar
    10    24    25   ar
    11     3     4   ar
    12     4     5   ar
    13     5     7    1
    14     7     8   ar
    15     8     9   ar
    16     9    10   ar
    17    10    11   ar
    18    11    12   ar
    19    12    13    1
    20     5     6   ar
    21     6    14    1
    22    14    15   ar
    23    15    16   ar
    24    16    17   ar
    25    17    18    1
    26    17    19   ar
    27    19    20   ar
    28     6     2   ar
    29    20    14   ar
    30    25    21   ar
    31    12     7   ar
