@<TRIPOS>MOLECULE
*****
 46 51 0 0 0
SMALL
GASTEIGER

@<TRIPOS>ATOM
      1 C          61.1976   89.6070   11.8630 C.3     1  UNL1        0.1209
      2 C          63.7112   90.6862   14.7383 C.ar    1  UNL1       -0.0226
      3 C          64.7355   91.4462   13.9489 C.ar    1  UNL1       -0.0077
      4 C          64.5805   91.5932   12.4641 C.ar    1  UNL1       -0.0117
      5 C          63.4012   90.9802   11.7688 C.ar    1  UNL1        0.0513
      6 CL         63.2462   91.1271   10.2841 Cl      1  UNL1       -0.0828
      7 C          62.3769   90.2201   12.5583 C.ar    1  UNL1        0.0076
      8 C          62.5320   90.0731   14.0430 C.ar    1  UNL1       -0.0061
      9 C          63.8662   90.5392   16.2230 C.3     1  UNL1        0.0289
     10 C          63.0807   89.4948   16.9593 C.3     1  UNL1        0.0367
     11 C          63.2674   88.0438   16.6282 C.3     1  UNL1        0.1426
     12 C          62.4798   85.5757   16.8237 C.3     1  UNL1        0.1741
     13 O          62.3609   87.0136   17.2339 O.3     1  UNL1       -0.3511
     14 C          65.6047   92.3533   11.6747 C.3     1  UNL1        0.0368
     15 C          66.4674   93.3756   12.3534 C.3     1  UNL1        0.0900
     16 C          66.4603   94.7981   11.8774 C.2     1  UNL1        0.2261
     17 O          66.0879   95.9029   12.8212 O.2     1  UNL1       -0.2749
     18 N          66.8256   95.1158   10.4577 N.am    1  UNL1       -0.2744
     19 C          67.1980   94.0110    9.5139 C.3     1  UNL1        0.1255
     20 C          67.5632   94.3286    8.0942 C.3     1  UNL1        0.1636
     21 O          67.5561   95.7511    7.6182 O.3     1  UNL1       -0.3501
     22 C          67.1837   96.8559    8.5620 C.3     1  UNL1        0.1636
     23 C          66.8185   96.5382    9.9818 C.3     1  UNL1        0.1255
     24 N          61.3915   88.4291   10.9548 N.am    1  UNL1       -0.2769
     25 C          62.4696   87.4274   11.2453 C.2     1  UNL1        0.2294
     26 O          63.3538   87.6037   12.4440 O.2     1  UNL1       -0.2747
     27 C          62.6635   86.2495   10.3370 C.3     1  UNL1        0.1211
     28 C          62.8193   86.4590    8.8599 C.3     1  UNL1        0.0804
     29 N          63.0131   85.2811    7.9517 N.3     1  UNL1       -0.2969
     30 C          63.0511   83.8937    8.5205 C.3     1  UNL1        0.0714
     31 C          62.8953   83.6842    9.9976 C.3     1  UNL1        0.0490
     32 C          62.7015   84.8621   10.9058 C.3     1  UNL1        0.1224
     33 O          62.5016   85.9372   11.9326 O.3     1  UNL1       -0.3492
     34 C          62.3947   85.2802   13.2769 C.3     1  UNL1        0.1687
     35 C          62.5286   83.7991   13.0809 C.ar    1  UNL1        0.0079
     36 C          62.5024   82.6524   14.0475 C.ar    1  UNL1        0.0299
     37 C          62.6657   81.2471   13.5487 C.ar    1  UNL1        0.1671
     38 F          62.6395   80.1004   14.5152 F       1  UNL1       -0.2018
     39 C          62.8553   80.9887   12.0833 C.ar    1  UNL1        0.1671
     40 F          63.0186   79.5836   11.5845 F       1  UNL1       -0.2018
     41 C          62.8815   82.1355   11.1167 C.ar    1  UNL1        0.0297
     42 C          62.7182   83.5407   11.6155 C.ar    1  UNL1        0.0033
     43 H          63.8993   85.4253    7.4676 H       1  UNL1        0.1233
     44 C          60.5073   88.2528    9.7559 C.3     1  UNL1        0.0758
     45 C          59.4770   87.4607    9.0069 C.3     1  UNL1        0.0215
     46 C          60.0060   88.7396    8.4287 C.3     1  UNL1        0.0215
@<TRIPOS>BOND
     1    12    13    1
     2    13    11    1
     3    11    10    1
     4    10     9    1
     5     9     2    1
     6     2     3   ar
     7     3     4   ar
     8     4    14    1
     9    14    15    1
    10    15    16    1
    11    16    17    2
    12    16    18   am
    13    18    19    1
    14    19    20    1
    15    20    21    1
    16    21    22    1
    17    22    23    1
    18     4     5   ar
    19     5     6    1
    20     5     7   ar
    21     7     1    1
    22     1    24    1
    23    24    25   am
    24    25    26    2
    25    27    25    1
    26    27    28    1
    27    28    29    1
    28    29    30    1
    29    30    31    1
    30    32    31    1
    31    32    33    1
    32    33    34    1
    33    34    35    1
    34    35    36   ar
    35    36    37   ar
    36    37    38    1
    37    37    39   ar
    38    39    40    1
    39    39    41   ar
    40    41    42   ar
    41    24    44    1
    42    44    45    1
    43    45    46    1
    44     7     8   ar
    45     8     2   ar
    46    23    18    1
    47    32    27    1
    48    42    35   ar
    49    46    44    1
    50    42    32    1
    51    29    43    1
@<TRIPOS>MOLECULE
*****
 46 51 0 0 0
SMALL
GASTEIGER

@<TRIPOS>ATOM
      1 C          60.9656   89.2065   11.6206 C.3     1  UNL1        0.1209
      2 C          63.5922   90.5841   14.2574 C.ar    1  UNL1       -0.0226
      3 C          64.4367   91.4633   13.3835 C.ar    1  UNL1       -0.0077
      4 C          64.1242   91.5903   11.9219 C.ar    1  UNL1       -0.0117
      5 C          62.9672   90.8380   11.3342 C.ar    1  UNL1        0.0513
      6 CL         62.6546   90.9650    9.8727 Cl      1  UNL1       -0.0828
      7 C          62.1227   89.9587   12.2082 C.ar    1  UNL1        0.0076
      8 C          62.4352   89.8318   13.6697 C.ar    1  UNL1       -0.0061
      9 C          63.9048   90.4571   15.7190 C.3     1  UNL1        0.0289
     10 C          62.9317   89.7798   16.6379 C.3     1  UNL1        0.0367
     11 C          63.1514   88.3523   17.0427 C.3     1  UNL1        0.1426
     12 C          63.5389   85.8726   16.3709 C.3     1  UNL1        0.1741
     13 O          63.5219   87.3286   16.0107 O.3     1  UNL1       -0.3511
     14 C          64.9687   92.4696   11.0480 C.3     1  UNL1        0.0368
     15 C          65.9996   93.3694   11.6623 C.3     1  UNL1        0.0900
     16 C          67.2859   92.7945   12.1772 C.2     1  UNL1        0.2261
     17 O          68.3322   92.3166   11.2146 O.2     1  UNL1       -0.2749
     18 N          67.5257   92.6976   13.6547 N.am    1  UNL1       -0.2744
     19 C          66.4794   93.1756   14.6174 C.3     1  UNL1        0.1255
     20 C          66.7193   93.0786   16.0949 C.3     1  UNL1        0.1636
     21 O          68.0056   92.5037   16.6098 O.3     1  UNL1       -0.3501
     22 C          69.0519   92.0258   15.6471 C.3     1  UNL1        0.1636
     23 C          68.8120   92.1227   14.1695 C.3     1  UNL1        0.1255
     24 N          61.2135   88.0191   10.7381 N.am    1  UNL1       -0.2769
     25 C          62.3455   87.0828   11.0411 C.2     1  UNL1        0.2294
     26 O          63.2297   87.3338   12.2265 O.2     1  UNL1       -0.2747
     27 C          62.5934   85.8953   10.1586 C.3     1  UNL1        0.1211
     28 C          62.7723   86.0832    8.6813 C.3     1  UNL1        0.0804
     29 N          63.0201   84.8958    7.7989 N.3     1  UNL1       -0.2969
     30 C          63.0890   83.5206    8.3938 C.3     1  UNL1        0.0714
     31 C          62.9101   83.3327    9.8712 C.3     1  UNL1        0.0490
     32 C          62.6622   84.5201   10.7536 C.3     1  UNL1        0.1224
     33 O          62.4091   85.6067   11.7563 O.3     1  UNL1       -0.3492
     34 C          62.2954   84.9709   13.1101 C.3     1  UNL1        0.1687
     35 C          62.4783   83.4913   12.9442 C.ar    1  UNL1        0.0079
     36 C          62.4676   82.3617   13.9310 C.ar    1  UNL1        0.0299
     37 C          62.6837   80.9535   13.4615 C.ar    1  UNL1        0.1671
     38 F          62.6731   79.8240   14.4483 F       1  UNL1       -0.2018
     39 C          62.9104   80.6750   12.0052 C.ar    1  UNL1        0.1671
     40 F          63.1264   79.2669   11.5356 F       1  UNL1       -0.2018
     41 C          62.9210   81.8046   11.0182 C.ar    1  UNL1        0.0297
     42 C          62.7050   83.2127   11.4877 C.ar    1  UNL1        0.0033
     43 H          63.9110   85.0586    7.3296 H       1  UNL1        0.1233
     44 C          60.3293   87.7680    9.5527 C.3     1  UNL1        0.0758
     45 C          59.7548   88.2178    8.2421 C.3     1  UNL1        0.0215
     46 C          59.3724   86.8833    8.8101 C.3     1  UNL1        0.0215
@<TRIPOS>BOND
     1    12    13    1
     2    13    11    1
     3    11    10    1
     4    10     9    1
     5     9     2    1
     6     2     3   ar
     7     3     4   ar
     8     4    14    1
     9    14    15    1
    10    15    16    1
    11    16    17    2
    12    16    18   am
    13    18    19    1
    14    19    20    1
    15    20    21    1
    16    21    22    1
    17    22    23    1
    18     4     5   ar
    19     5     6    1
    20     5     7   ar
    21     7     1    1
    22     1    24    1
    23    24    25   am
    24    25    26    2
    25    27    25    1
    26    27    28    1
    27    28    29    1
    28    29    30    1
    29    30    31    1
    30    32    31    1
    31    32    33    1
    32    33    34    1
    33    34    35    1
    34    35    36   ar
    35    36    37   ar
    36    37    38    1
    37    37    39   ar
    38    39    40    1
    39    39    41   ar
    40    41    42   ar
    41    24    44    1
    42    44    45    1
    43    45    46    1
    44     7     8   ar
    45     8     2   ar
    46    23    18    1
    47    32    27    1
    48    42    35   ar
    49    46    44    1
    50    42    32    1
    51    29    43    1
@<TRIPOS>MOLECULE
*****
 46 51 0 0 0
SMALL
GASTEIGER

@<TRIPOS>ATOM
      1 C          61.9006   91.0534   11.9923 C.3     1  UNL1        0.1209
      2 C          63.8300   90.3080   15.3792 C.ar    1  UNL1       -0.0226
      3 C          65.1714   90.9085   15.0795 C.ar    1  UNL1       -0.0077
      4 C          65.4226   91.5574   13.7506 C.ar    1  UNL1       -0.0117
      5 C          64.3323   91.6057   12.7215 C.ar    1  UNL1        0.0513
      6 CL         64.5835   92.2545   11.3926 Cl      1  UNL1       -0.0828
      7 C          62.9908   91.0051   13.0213 C.ar    1  UNL1        0.0076
      8 C          62.7397   90.3563   14.3502 C.ar    1  UNL1       -0.0061
      9 C          63.5788   89.6591   16.7082 C.3     1  UNL1        0.0289
     10 C          62.6019   88.5259   16.8168 C.3     1  UNL1        0.0367
     11 C          62.8994   87.3629   17.7161 C.3     1  UNL1        0.1426
     12 C          62.3730   85.1454   16.4689 C.3     1  UNL1        0.1741
     13 O          62.1019   86.0982   17.5953 O.3     1  UNL1       -0.3511
     14 C          66.7640   92.1579   13.4508 C.3     1  UNL1        0.0368
     15 C          66.8547   93.4568   12.7061 C.3     1  UNL1        0.0900
     16 C          67.2934   93.4700   11.2717 C.2     1  UNL1        0.2261
     17 O          68.1418   92.3546   10.7366 O.2     1  UNL1       -0.2749
     18 N          66.8838   94.5985   10.3725 N.am    1  UNL1       -0.2744
     19 C          66.0355   95.7138   10.9076 C.3     1  UNL1        0.1255
     20 C          65.6259   96.8423   10.0083 C.3     1  UNL1        0.1636
     21 O          66.0646   96.8555    8.5739 O.3     1  UNL1       -0.3501
     22 C          66.9130   95.7402    8.0389 C.3     1  UNL1        0.1636
     23 C          67.3226   94.6116    8.9382 C.3     1  UNL1        0.1255
     24 N          61.4081   89.7849   11.3613 N.am    1  UNL1       -0.2769
     25 C          62.2494   89.0800   10.3389 C.2     1  UNL1        0.2294
     26 O          63.5832   89.6436    9.9475 O.2     1  UNL1       -0.2747
     27 C          61.7568   87.8113    9.7079 C.3     1  UNL1        0.1211
     28 C          60.9647   87.8651    8.4352 C.3     1  UNL1        0.0804
     29 N          60.4722   86.5965    7.8043 N.3     1  UNL1       -0.2969
     30 C          60.7717   85.2742    8.4461 C.3     1  UNL1        0.0714
     31 C          61.5638   85.2205    9.7187 C.3     1  UNL1        0.0490
     32 C          62.0563   86.4891   10.3496 C.3     1  UNL1        0.1224
     33 O          62.6121   87.6677   11.0927 O.3     1  UNL1       -0.3492
     34 C          63.3309   87.1544   12.3050 C.3     1  UNL1        0.1687
     35 C          63.2195   85.6585   12.3113 C.ar    1  UNL1        0.0079
     36 C          63.7335   84.6177   13.2612 C.ar    1  UNL1        0.0299
     37 C          63.4599   83.1657   13.0027 C.ar    1  UNL1        0.1671
     38 F          63.9739   82.1249   13.9526 F       1  UNL1       -0.2018
     39 C          62.6721   82.7545   11.7943 C.ar    1  UNL1        0.1671
     40 F          62.3984   81.3026   11.5357 F       1  UNL1       -0.2018
     41 C          62.1580   83.7953   10.8442 C.ar    1  UNL1        0.0297
     42 C          62.4317   85.2473   11.1028 C.ar    1  UNL1        0.0033
     43 H          60.8658   86.5633    6.8639 H       1  UNL1        0.1233
     44 C          60.0742   89.2212   11.7527 C.3     1  UNL1        0.0758
     45 C          59.0053   89.0094   12.7835 C.3     1  UNL1        0.0215
     46 C          58.8329   88.4566   11.3998 C.3     1  UNL1        0.0215
@<TRIPOS>BOND
     1    12    13    1
     2    13    11    1
     3    11    10    1
     4    10     9    1
     5     9     2    1
     6     2     3   ar
     7     3     4   ar
     8     4    14    1
     9    14    15    1
    10    15    16    1
    11    16    17    2
    12    16    18   am
    13    18    19    1
    14    19    20    1
    15    20    21    1
    16    21    22    1
    17    22    23    1
    18     4     5   ar
    19     5     6    1
    20     5     7   ar
    21     7     1    1
    22     1    24    1
    23    24    25   am
    24    25    26    2
    25    27    25    1
    26    27    28    1
    27    28    29    1
    28    29    30    1
    29    30    31    1
    30    32    31    1
    31    32    33    1
    32    33    34    1
    33    34    35    1
    34    35    36   ar
    35    36    37   ar
    36    37    38    1
    37    37    39   ar
    38    39    40    1
    39    39    41   ar
    40    41    42   ar
    41    24    44    1
    42    44    45    1
    43    45    46    1
    44     7     8   ar
    45     8     2   ar
    46    23    18    1
    47    32    27    1
    48    42    35   ar
    49    46    44    1
    50    42    32    1
    51    29    43    1
@<TRIPOS>MOLECULE
*****
 46 51 0 0 0
SMALL
GASTEIGER

@<TRIPOS>ATOM
      1 C          60.9776   89.9564   10.0628 C.3     1  UNL1        0.1209
      2 C          64.2593   92.0016   10.9562 C.ar    1  UNL1       -0.0226
      3 C          64.3246   91.7982   12.4409 C.ar    1  UNL1       -0.0077
      4 C          63.2743   90.9808   13.1330 C.ar    1  UNL1       -0.0117
      5 C          62.1586   90.3669   12.3402 C.ar    1  UNL1        0.0513
      6 CL         61.1084   89.5496   13.0322 Cl      1  UNL1       -0.0828
      7 C          62.0933   90.5703   10.8555 C.ar    1  UNL1        0.0076
      8 C          63.1436   91.3876   10.1635 C.ar    1  UNL1       -0.0061
      9 C          65.3096   92.8189   10.2642 C.3     1  UNL1        0.0289
     10 C          66.7514   92.6688   10.6496 C.3     1  UNL1        0.0367
     11 C          67.8305   93.0346    9.6741 C.3     1  UNL1        0.1426
     12 C          67.6407   95.4492    8.7341 C.3     1  UNL1        0.1741
     13 O          68.3342   94.4459    9.6073 O.3     1  UNL1       -0.3511
     14 C          63.3397   90.7774   14.6176 C.3     1  UNL1        0.0368
     15 C          64.6675   90.6003   15.2926 C.3     1  UNL1        0.0900
     16 C          65.3470   91.7755   15.9309 C.2     1  UNL1        0.2261
     17 O          64.6574   92.5385   17.0228 O.2     1  UNL1       -0.2749
     18 N          66.7161   92.1875   15.4774 N.am    1  UNL1       -0.2744
     19 C          67.4057   91.4245   14.3855 C.3     1  UNL1        0.1255
     20 C          68.7748   91.8365   13.9320 C.3     1  UNL1        0.1636
     21 O          69.4544   93.0117   14.5703 O.3     1  UNL1       -0.3501
     22 C          68.7647   93.7747   15.6622 C.3     1  UNL1        0.1636
     23 C          67.3956   93.3626   16.1157 C.3     1  UNL1        0.1255
     24 N          61.1261   88.5709    9.5077 N.am    1  UNL1       -0.2769
     25 C          62.3255   87.7442    9.8653 C.2     1  UNL1        0.2294
     26 O          63.3766   88.3031   10.7779 O.2     1  UNL1       -0.2747
     27 C          62.4739   86.3586    9.3101 C.3     1  UNL1        0.1211
     28 C          62.5062   86.1447    7.8259 C.3     1  UNL1        0.0804
     29 N          62.6546   84.7592    7.2708 N.3     1  UNL1       -0.2969
     30 C          62.7707   83.5874    8.2001 C.3     1  UNL1        0.0714
     31 C          62.7384   83.8012    9.6844 C.3     1  UNL1        0.0490
     32 C          62.5900   85.1868   10.2394 C.3     1  UNL1        0.1224
     33 O          62.4475   86.5071   10.9372 O.3     1  UNL1       -0.3492
     34 C          62.4640   86.2542   12.4156 C.3     1  UNL1        0.1687
     35 C          62.6167   84.7777   12.6317 C.ar    1  UNL1        0.0079
     36 C          62.6948   83.9487   13.8792 C.ar    1  UNL1        0.0299
     37 C          62.8509   82.4599   13.7820 C.ar    1  UNL1        0.1671
     38 F          62.9291   81.6309   15.0295 F       1  UNL1       -0.2018
     39 C          62.9288   81.8003   12.4371 C.ar    1  UNL1        0.1671
     40 F          63.0849   80.3117   12.3398 F       1  UNL1       -0.2018
     41 C          62.8507   82.6293   11.1894 C.ar    1  UNL1        0.0297
     42 C          62.6946   84.1180   11.2867 C.ar    1  UNL1        0.0033
     43 H          63.4956   84.7617    6.6936 H       1  UNL1        0.1233
     44 C          60.0750   88.0119    8.5950 C.3     1  UNL1        0.0758
     45 C          59.0966   86.9285    8.2503 C.3     1  UNL1        0.0215
     46 C          59.2329   88.1273    7.3591 C.3     1  UNL1        0.0215
@<TRIPOS>BOND
     1    12    13    1
     2    13    11    1
     3    11    10    1
     4    10     9    1
     5     9     2    1
     6     2     3   ar
     7     3     4   ar
     8     4    14    1
     9    14    15    1
    10    15    16    1
    11    16    17    2
    12    16    18   am
    13    18    19    1
    14    19    20    1
    15    20    21    1
    16    21    22    1
    17    22    23    1
    18     4     5   ar
    19     5     6    1
    20     5     7   ar
    21     7     1    1
    22     1    24    1
    23    24    25   am
    24    25    26    2
    25    27    25    1
    26    27    28    1
    27    28    29    1
    28    29    30    1
    29    30    31    1
    30    32    31    1
    31    32    33    1
    32    33    34    1
    33    34    35    1
    34    35    36   ar
    35    36    37   ar
    36    37    38    1
    37    37    39   ar
    38    39    40    1
    39    39    41   ar
    40    41    42   ar
    41    24    44    1
    42    44    45    1
    43    45    46    1
    44     7     8   ar
    45     8     2   ar
    46    23    18    1
    47    32    27    1
    48    42    35   ar
    49    46    44    1
    50    42    32    1
    51    29    43    1
@<TRIPOS>MOLECULE
*****
 46 51 0 0 0
SMALL
GASTEIGER

@<TRIPOS>ATOM
      1 C          61.0441   89.9318   10.3826 C.3     1  UNL1        0.1209
      2 C          64.3486   92.0866   10.8156 C.ar    1  UNL1       -0.0226
      3 C          64.5730   91.9675   12.2939 C.ar    1  UNL1       -0.0077
      4 C          63.6211   91.1698   13.1351 C.ar    1  UNL1       -0.0117
      5 C          62.4448   90.4912   12.4980 C.ar    1  UNL1        0.0513
      6 CL         61.4930   89.6936   13.3392 Cl      1  UNL1       -0.0828
      7 C          62.2204   90.6104   11.0197 C.ar    1  UNL1        0.0076
      8 C          63.1723   91.4080   10.1785 C.ar    1  UNL1       -0.0061
      9 C          65.3005   92.8842    9.9743 C.3     1  UNL1        0.0289
     10 C          66.1152   93.9791   10.5969 C.3     1  UNL1        0.0367
     11 C          67.2093   94.6392    9.8114 C.3     1  UNL1        0.1426
     12 C          68.8237   92.6692    9.2989 C.3     1  UNL1        0.1741
     13 O          68.0137   93.8409    8.8288 O.3     1  UNL1       -0.3511
     14 C          63.8456   91.0507   14.6134 C.3     1  UNL1        0.0368
     15 C          64.4201   89.7887   15.1855 C.3     1  UNL1        0.0900
     16 C          63.5544   88.8707   15.9966 C.2     1  UNL1        0.2261
     17 O          62.4719   89.4358   16.8677 O.2     1  UNL1       -0.2749
     18 N          63.7712   87.3877   15.9365 N.am    1  UNL1       -0.2744
     19 C          64.8537   86.8226   15.0654 C.3     1  UNL1        0.1255
     20 C          65.0704   85.3396   15.0053 C.3     1  UNL1        0.1636
     21 O          64.2047   84.4216   15.8164 O.3     1  UNL1       -0.3501
     22 C          63.1222   84.9867   16.6875 C.3     1  UNL1        0.1636
     23 C          62.9054   86.4698   16.7476 C.3     1  UNL1        0.1255
     24 N          61.2130   88.5897    9.7345 N.am    1  UNL1       -0.2769
     25 C          62.3731   87.7161   10.1100 C.2     1  UNL1        0.2294
     26 O          63.3644   88.1847   11.1335 O.2     1  UNL1       -0.2747
     27 C          62.5419   86.3738    9.4619 C.3     1  UNL1        0.1211
     28 C          62.7003   86.2742    7.9737 C.3     1  UNL1        0.0804
     29 N          62.8690   84.9320    7.3256 N.3     1  UNL1       -0.2969
     30 C          62.8794   83.6895    8.1659 C.3     1  UNL1        0.0714
     31 C          62.7211   83.7891    9.6541 C.3     1  UNL1        0.0490
     32 C          62.5523   85.1313   10.3021 C.3     1  UNL1        0.1224
     33 O          62.3755   86.3972   11.0872 O.3     1  UNL1       -0.3492
     34 C          62.2568   86.0309   12.5369 C.3     1  UNL1        0.1687
     35 C          62.3603   84.5386   12.6479 C.ar    1  UNL1        0.0079
     36 C          62.3118   83.6141   13.8281 C.ar    1  UNL1        0.0299
     37 C          62.4459   82.1336   13.6273 C.ar    1  UNL1        0.1671
     38 F          62.3974   81.2092   14.8075 F       1  UNL1       -0.2018
     39 C          62.6285   81.5777   12.2461 C.ar    1  UNL1        0.1671
     40 F          62.7626   80.0973   12.0452 F       1  UNL1       -0.2018
     41 C          62.6770   82.5022   11.0658 C.ar    1  UNL1        0.0297
     42 C          62.5429   83.9826   11.2667 C.ar    1  UNL1        0.0033
     43 H          63.7574   84.9564    6.8250 H       1  UNL1        0.1233
     44 C          60.2216   88.1210    8.7109 C.3     1  UNL1        0.0758
     45 C          59.2521   87.0873    8.2195 C.3     1  UNL1        0.0215
     46 C          59.4741   88.3429    7.4296 C.3     1  UNL1        0.0215
@<TRIPOS>BOND
     1    12    13    1
     2    13    11    1
     3    11    10    1
     4    10     9    1
     5     9     2    1
     6     2     3   ar
     7     3     4   ar
     8     4    14    1
     9    14    15    1
    10    15    16    1
    11    16    17    2
    12    16    18   am
    13    18    19    1
    14    19    20    1
    15    20    21    1
    16    21    22    1
    17    22    23    1
    18     4     5   ar
    19     5     6    1
    20     5     7   ar
    21     7     1    1
    22     1    24    1
    23    24    25   am
    24    25    26    2
    25    27    25    1
    26    27    28    1
    27    28    29    1
    28    29    30    1
    29    30    31    1
    30    32    31    1
    31    32    33    1
    32    33    34    1
    33    34    35    1
    34    35    36   ar
    35    36    37   ar
    36    37    38    1
    37    37    39   ar
    38    39    40    1
    39    39    41   ar
    40    41    42   ar
    41    24    44    1
    42    44    45    1
    43    45    46    1
    44     7     8   ar
    45     8     2   ar
    46    23    18    1
    47    32    27    1
    48    42    35   ar
    49    46    44    1
    50    42    32    1
    51    29    43    1
