@<TRIPOS>MOLECULE
*****
 30 33 0 0 0
SMALL
GASTEIGER

@<TRIPOS>ATOM
      1 C          65.4857   90.8475   13.6333 C.2     1  UNL1        0.2289
      2 O          66.3529   89.9180   14.4297 O.2     1  UNL1       -0.2745
      3 N          64.2762   90.3190   12.9209 N.am    1  UNL1       -0.2569
      4 C          63.4090   91.2484   12.1246 C.3     1  UNL1        0.1200
      5 C          63.9337   88.8610   13.0048 C.ar    1  UNL1        0.0539
      6 C          64.3621   88.0573   14.1966 C.ar    1  UNL1        0.0151
      7 C          64.0197   86.5993   14.2805 C.ar    1  UNL1        0.0059
      8 C          63.2489   85.9450   13.1725 C.ar    1  UNL1        0.0537
      9 C          62.8205   86.7487   11.9806 C.ar    1  UNL1        0.0059
     10 C          63.1630   88.2067   11.8968 C.ar    1  UNL1        0.0151
     11 C          62.9065   84.4870   13.2564 C.ar    1  UNL1        0.2297
     12 N          63.4580   83.4001   12.3821 N.ar    1  UNL1       -0.2083
     13 C          62.8448   82.1013   12.8146 C.ar    1  UNL1        0.1189
     14 C          63.0135   80.6966   12.3164 C.ar    1  UNL1        0.0223
     15 C          62.2517   79.5761   12.9599 C.ar    1  UNL1        0.0018
     16 C          61.3212   79.8603   14.1015 C.ar    1  UNL1        0.0032
     17 C          61.1524   81.2650   14.5997 C.ar    1  UNL1        0.0391
     18 C          61.9142   82.3855   13.9562 C.ar    1  UNL1        0.1647
     19 O          61.9524   83.8600   14.2292 O.2     1  UNL1       -0.4346
     20 C          66.1504   94.5557   12.6989 C.3     1  UNL1        0.0720
     21 C          66.5598   94.5425   14.1419 C.3     1  UNL1        0.0201
     22 C          66.3606   93.1518   14.6677 C.3     1  UNL1        0.0108
     23 C          65.8281   92.3055   13.5495 C.3     1  UNL1        0.0787
     24 C          65.6982   93.1731   12.3328 C.3     1  UNL1        0.0286
     25 C          66.9414   95.6688   10.4887 C.2     1  UNL1        0.2224
     26 O          67.6596   94.4074   10.1105 O.2     1  UNL1       -0.2751
     27 N          66.1868   95.7429   11.7830 N.am    1  UNL1       -0.3059
     28 H          65.7154   96.5708   12.0312 H       1  UNL1        0.1494
     29 C          67.2829   96.6702    8.1158 C.3     1  UNL1        0.0101
     30 C          66.9779   96.8560    9.5727 C.3     1  UNL1        0.0851
@<TRIPOS>BOND
     1    29    30    1
     2    30    25    1
     3    25    26    2
     4    25    27   am
     5    20    27    1
     6    20    21    1
     7    21    22    1
     8    22    23    1
     9    23     1    1
    10     1     2    2
    11     1     3   am
    12     3     4    1
    13     3     5    1
    14     5     6   ar
    15     6     7   ar
    16     7     8   ar
    17     8    11    1
    18    11    12   ar
    19    12    13   ar
    20    13    14   ar
    21    14    15   ar
    22    15    16   ar
    23    16    17   ar
    24    17    18   ar
    25    18    19   ar
    26     8     9   ar
    27     9    10   ar
    28    23    24    1
    29    24    20    1
    30    10     5   ar
    31    19    11   ar
    32    18    13   ar
    33    27    28    1
@<TRIPOS>MOLECULE
*****
 30 33 0 0 0
SMALL
GASTEIGER

@<TRIPOS>ATOM
      1 C          72.0895   78.4898   11.3761 C.2     1  UNL1        0.2289
      2 O          71.2153   77.4432   10.7511 O.2     1  UNL1       -0.2745
      3 N          72.7567   78.2214   12.6924 N.am    1  UNL1       -0.2569
      4 C          73.6308   79.2679   13.3173 C.3     1  UNL1        0.1200
      5 C          72.5497   76.9064   13.3838 C.ar    1  UNL1        0.0539
      6 C          73.3580   75.7100   12.9773 C.ar    1  UNL1        0.0151
      7 C          73.1511   74.3950   13.6687 C.ar    1  UNL1        0.0059
      8 C          72.1359   74.2764   14.7666 C.ar    1  UNL1        0.0537
      9 C          71.3276   75.4728   15.1730 C.ar    1  UNL1        0.0059
     10 C          71.5346   76.7878   14.4816 C.ar    1  UNL1        0.0151
     11 C          71.9290   72.9614   15.4579 C.ar    1  UNL1        0.2297
     12 N          72.5292   71.6480   15.0523 N.ar    1  UNL1       -0.2083
     13 C          72.0567   70.6038   16.0200 C.ar    1  UNL1        0.1189
     14 C          72.3236   69.1310   16.1169 C.ar    1  UNL1        0.0223
     15 C          71.6983   68.3263   17.2175 C.ar    1  UNL1        0.0018
     16 C          70.8060   68.9944   18.2212 C.ar    1  UNL1        0.0032
     17 C          70.5390   70.4672   18.1243 C.ar    1  UNL1        0.0391
     18 C          71.1644   71.2719   17.0237 C.ar    1  UNL1        0.1647
     19 O          71.0855   72.7290   16.6763 O.2     1  UNL1       -0.4346
     20 C          72.7101   81.4705    8.9686 C.3     1  UNL1        0.0720
     21 C          72.5196   82.1862   10.2729 C.3     1  UNL1        0.0201
     22 C          72.2639   81.1568   11.3336 C.3     1  UNL1        0.0108
     23 C          72.2964   79.8048   10.6847 C.3     1  UNL1        0.0787
     24 C          72.5722   79.9986    9.2231 C.3     1  UNL1        0.0286
     25 C          72.1448   81.7726    6.4509 C.2     1  UNL1        0.2224
     26 O          71.0207   80.7885    6.5852 O.2     1  UNL1       -0.2751
     27 N          72.9895   82.1136    7.6426 N.am    1  UNL1       -0.3059
     28 H          73.7272   82.7595    7.5545 H       1  UNL1        0.1494
     29 C          73.1423   81.6476    4.0552 C.3     1  UNL1        0.0101
     30 C          72.4241   82.4157    5.1249 C.3     1  UNL1        0.0851
@<TRIPOS>BOND
     1    29    30    1
     2    30    25    1
     3    25    26    2
     4    25    27   am
     5    20    27    1
     6    20    21    1
     7    21    22    1
     8    22    23    1
     9    23     1    1
    10     1     2    2
    11     1     3   am
    12     3     4    1
    13     3     5    1
    14     5     6   ar
    15     6     7   ar
    16     7     8   ar
    17     8    11    1
    18    11    12   ar
    19    12    13   ar
    20    13    14   ar
    21    14    15   ar
    22    15    16   ar
    23    16    17   ar
    24    17    18   ar
    25    18    19   ar
    26     8     9   ar
    27     9    10   ar
    28    23    24    1
    29    24    20    1
    30    10     5   ar
    31    19    11   ar
    32    18    13   ar
    33    27    28    1
@<TRIPOS>MOLECULE
*****
 30 33 0 0 0
SMALL
GASTEIGER

@<TRIPOS>ATOM
      1 C          73.0227   78.6426   10.7207 C.2     1  UNL1        0.2289
      2 O          73.6326   77.3735   10.2037 O.2     1  UNL1       -0.2745
      3 N          72.2665   78.6379   12.0162 N.am    1  UNL1       -0.2569
      4 C          71.6566   79.9070   12.5332 C.3     1  UNL1        0.1200
      5 C          72.1203   77.3640   12.7946 C.ar    1  UNL1        0.0539
      6 C          72.5074   77.3216   14.2431 C.ar    1  UNL1        0.0151
      7 C          72.3611   76.0477   15.0215 C.ar    1  UNL1        0.0059
      8 C          71.8277   74.8163   14.3514 C.ar    1  UNL1        0.0537
      9 C          71.4406   74.8588   12.9028 C.ar    1  UNL1        0.0059
     10 C          71.5869   76.1326   12.1244 C.ar    1  UNL1        0.0151
     11 C          71.6814   73.5425   15.1297 C.ar    1  UNL1        0.2297
     12 N          72.1373   72.1829   14.6895 N.ar    1  UNL1       -0.2083
     13 C          71.7912   71.2047   15.7727 C.ar    1  UNL1        0.1189
     14 C          71.9994   69.7240   15.8920 C.ar    1  UNL1        0.0223
     15 C          71.5379   68.9984   17.1209 C.ar    1  UNL1        0.0018
     16 C          70.8681   69.7534   18.2306 C.ar    1  UNL1        0.0032
     17 C          70.6599   71.2340   18.1114 C.ar    1  UNL1        0.0391
     18 C          71.1215   71.9597   16.8825 C.ar    1  UNL1        0.1647
     19 O          71.0536   73.4045   16.4850 O.2     1  UNL1       -0.4346
     20 C          73.3988   81.4853    8.1048 C.3     1  UNL1        0.0720
     21 C          73.3893   82.2682    9.3842 C.3     1  UNL1        0.0201
     22 C          73.2472   81.2987   10.5200 C.3     1  UNL1        0.0108
     23 C          73.1690   79.9165    9.9424 C.3     1  UNL1        0.0787
     24 C          73.2627   80.0319    8.4497 C.3     1  UNL1        0.0286
     25 C          72.5018   81.7172    5.6776 C.2     1  UNL1        0.2224
     26 O          71.3570   80.8082    6.0138 O.2     1  UNL1       -0.2751
     27 N          73.5228   82.0557    6.7231 N.am    1  UNL1       -0.3059
     28 H          74.2742   82.6523    6.5024 H       1  UNL1        0.1494
     29 C          73.6297   81.7193    3.3371 C.3     1  UNL1        0.0101
     30 C          72.6257   82.2875    4.2958 C.3     1  UNL1        0.0851
@<TRIPOS>BOND
     1    29    30    1
     2    30    25    1
     3    25    26    2
     4    25    27   am
     5    20    27    1
     6    20    21    1
     7    21    22    1
     8    22    23    1
     9    23     1    1
    10     1     2    2
    11     1     3   am
    12     3     4    1
    13     3     5    1
    14     5     6   ar
    15     6     7   ar
    16     7     8   ar
    17     8    11    1
    18    11    12   ar
    19    12    13   ar
    20    13    14   ar
    21    14    15   ar
    22    15    16   ar
    23    16    17   ar
    24    17    18   ar
    25    18    19   ar
    26     8     9   ar
    27     9    10   ar
    28    23    24    1
    29    24    20    1
    30    10     5   ar
    31    19    11   ar
    32    18    13   ar
    33    27    28    1
@<TRIPOS>MOLECULE
*****
 30 33 0 0 0
SMALL
GASTEIGER

@<TRIPOS>ATOM
      1 C          59.5524   88.7813    6.9246 C.2     1  UNL1        0.2289
      2 O          59.3753   87.3632    6.4689 O.2     1  UNL1       -0.2745
      3 N          60.2284   89.0700    8.2321 N.am    1  UNL1       -0.2569
      4 C          60.4054   90.4881    8.6879 C.3     1  UNL1        0.1200
      5 C          60.7273   87.9407    9.0839 C.ar    1  UNL1        0.0539
      6 C          61.5032   86.8179    8.4616 C.ar    1  UNL1        0.0151
      7 C          62.0022   85.6885    9.3134 C.ar    1  UNL1        0.0059
      8 C          61.7253   85.6819   10.7875 C.ar    1  UNL1        0.0537
      9 C          60.9495   86.8047   11.4099 C.ar    1  UNL1        0.0059
     10 C          60.4505   87.9341   10.5581 C.ar    1  UNL1        0.0151
     11 C          62.2243   84.5526   11.6393 C.ar    1  UNL1        0.2297
     12 N          62.8451   84.6811   12.9988 N.ar    1  UNL1       -0.2083
     13 C          63.1946   83.3044   13.4809 C.ar    1  UNL1        0.1189
     14 C          63.8291   82.8161   14.7493 C.ar    1  UNL1        0.0223
     15 C          64.0588   81.3483   14.9562 C.ar    1  UNL1        0.0018
     16 C          63.6540   80.3689   13.8947 C.ar    1  UNL1        0.0032
     17 C          63.0195   80.8572   12.6263 C.ar    1  UNL1        0.0391
     18 C          62.7898   82.3249   12.4194 C.ar    1  UNL1        0.1647
     19 O          62.1901   83.0964   11.2813 O.2     1  UNL1       -0.4346
     20 C          58.9845   91.7765    4.5221 C.3     1  UNL1        0.0720
     21 C          57.5865   91.5208    5.0020 C.3     1  UNL1        0.0201
     22 C          57.6290   90.3676    5.9604 C.3     1  UNL1        0.0108
     23 C          59.0534   89.9107    6.0728 C.3     1  UNL1        0.0787
     24 C          59.8910   90.7814    5.1839 C.3     1  UNL1        0.0286
     25 C          60.7865   92.8262    2.9727 C.2     1  UNL1        0.2224
     26 O          61.7525   91.7481    3.3657 O.2     1  UNL1       -0.2751
     27 N          59.4024   92.8404    3.5509 N.am    1  UNL1       -0.3059
     28 H          58.7684   93.5480    3.2930 H       1  UNL1        0.1494
     29 C          62.2802   93.6064    0.9953 C.3     1  UNL1        0.0101
     30 C          61.2045   93.8902    2.0015 C.3     1  UNL1        0.0851
@<TRIPOS>BOND
     1    29    30    1
     2    30    25    1
     3    25    26    2
     4    25    27   am
     5    20    27    1
     6    20    21    1
     7    21    22    1
     8    22    23    1
     9    23     1    1
    10     1     2    2
    11     1     3   am
    12     3     4    1
    13     3     5    1
    14     5     6   ar
    15     6     7   ar
    16     7     8   ar
    17     8    11    1
    18    11    12   ar
    19    12    13   ar
    20    13    14   ar
    21    14    15   ar
    22    15    16   ar
    23    16    17   ar
    24    17    18   ar
    25    18    19   ar
    26     8     9   ar
    27     9    10   ar
    28    23    24    1
    29    24    20    1
    30    10     5   ar
    31    19    11   ar
    32    18    13   ar
    33    27    28    1
@<TRIPOS>MOLECULE
*****
 30 33 0 0 0
SMALL
GASTEIGER

@<TRIPOS>ATOM
      1 C          63.4087   85.8012   13.5076 C.2     1  UNL1        0.2289
      2 O          64.5871   86.2966   14.2926 O.2     1  UNL1       -0.2745
      3 N          62.7408   86.7000   12.5097 N.am    1  UNL1       -0.2569
      4 C          61.5625   86.2046   11.7248 C.3     1  UNL1        0.1200
      5 C          63.2513   88.0943   12.2966 C.ar    1  UNL1        0.0539
      6 C          63.0088   88.7903   10.9902 C.ar    1  UNL1        0.0151
      7 C          63.5192   90.1846   10.7772 C.ar    1  UNL1        0.0059
      8 C          64.2721   90.8829   11.8705 C.ar    1  UNL1        0.0537
      9 C          64.5146   90.1869   13.1769 C.ar    1  UNL1        0.0059
     10 C          64.0042   88.7926   13.3899 C.ar    1  UNL1        0.0151
     11 C          64.7825   92.2772   11.6574 C.ar    1  UNL1        0.2297
     12 N          65.4808   93.1261   12.6781 N.ar    1  UNL1       -0.2083
     13 C          65.8141   94.4410   12.0378 C.ar    1  UNL1        0.1189
     14 C          66.5023   95.6666   12.5615 C.ar    1  UNL1        0.0223
     15 C          66.6982   96.8559   11.6688 C.ar    1  UNL1        0.0018
     16 C          66.2060   96.8197   10.2523 C.ar    1  UNL1        0.0032
     17 C          65.5178   95.5941    9.7286 C.ar    1  UNL1        0.0391
     18 C          65.3219   94.4047   10.6213 C.ar    1  UNL1        0.1647
     19 O          64.6844   93.0675   10.3863 O.2     1  UNL1       -0.4346
     20 C          62.4505   82.0410   13.4161 C.3     1  UNL1        0.0720
     21 C          61.7752   82.4815   14.6810 C.3     1  UNL1        0.0201
     22 C          62.0519   83.9437   14.8693 C.3     1  UNL1        0.0108
     23 C          62.8983   84.4069   13.7207 C.3     1  UNL1        0.0787
     24 C          63.1446   83.2309   12.8226 C.3     1  UNL1        0.0286
     25 C          62.8260   80.4273   11.4149 C.2     1  UNL1        0.2224
     26 O          63.2336   81.5875   10.5559 O.2     1  UNL1       -0.2751
     27 N          62.4344   80.6541   12.8450 N.am    1  UNL1       -0.3059
     28 H          62.1669   79.8926   13.4088 H       1  UNL1        0.1494
     29 C          62.9285   78.8380    9.3622 C.3     1  UNL1        0.0101
     30 C          62.8100   79.0404   10.8437 C.3     1  UNL1        0.0851
@<TRIPOS>BOND
     1    29    30    1
     2    30    25    1
     3    25    26    2
     4    25    27   am
     5    20    27    1
     6    20    21    1
     7    21    22    1
     8    22    23    1
     9    23     1    1
    10     1     2    2
    11     1     3   am
    12     3     4    1
    13     3     5    1
    14     5     6   ar
    15     6     7   ar
    16     7     8   ar
    17     8    11    1
    18    11    12   ar
    19    12    13   ar
    20    13    14   ar
    21    14    15   ar
    22    15    16   ar
    23    16    17   ar
    24    17    18   ar
    25    18    19   ar
    26     8     9   ar
    27     9    10   ar
    28    23    24    1
    29    24    20    1
    30    10     5   ar
    31    19    11   ar
    32    18    13   ar
    33    27    28    1
@<TRIPOS>MOLECULE
*****
 30 33 0 0 0
SMALL
GASTEIGER

@<TRIPOS>ATOM
      1 C          60.7082   89.3612    8.4631 C.2     1  UNL1        0.2289
      2 O          61.5759   90.5841    8.5057 O.2     1  UNL1       -0.2745
      3 N          59.7975   89.1281    7.2943 N.am    1  UNL1       -0.2569
      4 C          58.9299   87.9053    7.2518 C.3     1  UNL1        0.1200
      5 C          59.7544   90.1179    6.1680 C.ar    1  UNL1        0.0539
      6 C          61.0152   90.4839    5.4426 C.ar    1  UNL1        0.0151
      7 C          60.9721   91.4737    4.3163 C.ar    1  UNL1        0.0059
      8 C          59.6682   92.0974    3.9155 C.ar    1  UNL1        0.0537
      9 C          58.4073   91.7314    4.6409 C.ar    1  UNL1        0.0059
     10 C          58.4505   90.7416    5.7672 C.ar    1  UNL1        0.0151
     11 C          59.6251   93.0872    2.7892 C.ar    1  UNL1        0.2297
     12 N          60.1548   94.4900    2.8274 N.ar    1  UNL1       -0.2083
     13 C          59.9018   95.1177    1.4888 C.ar    1  UNL1        0.1189
     14 C          60.2075   96.4823    0.9462 C.ar    1  UNL1        0.0223
     15 C          59.8271   96.8320   -0.4620 C.ar    1  UNL1        0.0018
     16 C          59.1410   95.8171   -1.3276 C.ar    1  UNL1        0.0032
     17 C          58.8353   94.4525   -0.7850 C.ar    1  UNL1        0.0391
     18 C          59.2157   94.1028    0.6232 C.ar    1  UNL1        0.1647
     19 O          59.0447   92.8479    1.4269 O.2     1  UNL1       -0.4346
     20 C          61.3188   86.4389   10.9436 C.3     1  UNL1        0.0720
     21 C          60.3165   87.2579   11.7017 C.3     1  UNL1        0.0201
     22 C          59.9657   88.4523   10.8648 C.3     1  UNL1        0.0108
     23 C          60.7513   88.3715    9.5894 C.3     1  UNL1        0.0787
     24 C          61.5875   87.1271    9.6382 C.3     1  UNL1        0.0286
     25 C          62.9833   85.1781   12.4894 C.2     1  UNL1        0.2224
     26 O          63.3998   86.4815   13.1040 O.2     1  UNL1       -0.2751
     27 N          61.9427   85.1568   11.4092 N.am    1  UNL1       -0.3059
     28 H          61.6693   84.3014   11.0059 H       1  UNL1        0.1494
     29 C          64.1617   82.9252   11.9551 C.3     1  UNL1        0.0101
     30 C          63.6073   83.8961   12.9551 C.3     1  UNL1        0.0851
@<TRIPOS>BOND
     1    29    30    1
     2    30    25    1
     3    25    26    2
     4    25    27   am
     5    20    27    1
     6    20    21    1
     7    21    22    1
     8    22    23    1
     9    23     1    1
    10     1     2    2
    11     1     3   am
    12     3     4    1
    13     3     5    1
    14     5     6   ar
    15     6     7   ar
    16     7     8   ar
    17     8    11    1
    18    11    12   ar
    19    12    13   ar
    20    13    14   ar
    21    14    15   ar
    22    15    16   ar
    23    16    17   ar
    24    17    18   ar
    25    18    19   ar
    26     8     9   ar
    27     9    10   ar
    28    23    24    1
    29    24    20    1
    30    10     5   ar
    31    19    11   ar
    32    18    13   ar
    33    27    28    1
@<TRIPOS>MOLECULE
*****
 30 33 0 0 0
SMALL
GASTEIGER

@<TRIPOS>ATOM
      1 C          63.1122   83.8037   12.8869 C.2     1  UNL1        0.2289
      2 O          63.7525   84.2098   11.5925 O.2     1  UNL1       -0.2745
      3 N          62.9370   84.8101   13.9852 N.am    1  UNL1       -0.2569
      4 C          62.2968   84.4040   15.2794 C.3     1  UNL1        0.1200
      5 C          63.4020   86.2227   13.7893 C.ar    1  UNL1        0.0539
      6 C          62.9791   86.9894   12.5714 C.ar    1  UNL1        0.0151
      7 C          63.4441   88.4020   12.3755 C.ar    1  UNL1        0.0059
      8 C          64.3320   89.0479   13.3974 C.ar    1  UNL1        0.0537
      9 C          64.7549   88.2812   14.6152 C.ar    1  UNL1        0.0059
     10 C          64.2899   86.8686   14.8112 C.ar    1  UNL1        0.0151
     11 C          64.7970   90.4605   13.2015 C.ar    1  UNL1        0.2297
     12 N          65.5221   91.2983   14.2125 N.ar    1  UNL1       -0.2083
     13 C          65.7918   92.6389   13.5960 C.ar    1  UNL1        0.1189
     14 C          66.4737   93.8668   14.1224 C.ar    1  UNL1        0.0223
     15 C          66.5972   95.0855   13.2567 C.ar    1  UNL1        0.0018
     16 C          66.0388   95.0762   11.8645 C.ar    1  UNL1        0.0032
     17 C          65.3569   93.8483   11.3381 C.ar    1  UNL1        0.0391
     18 C          65.2334   92.6296   12.2039 C.ar    1  UNL1        0.1647
     19 O          64.6186   91.2833   11.9600 O.2     1  UNL1       -0.4346
     20 C          62.3856   79.9913   12.8318 C.3     1  UNL1        0.0720
     21 C          61.4776   80.4434   13.9369 C.3     1  UNL1        0.0201
     22 C          61.6393   81.9266   14.0921 C.3     1  UNL1        0.0108
     23 C          62.6472   82.3911   13.0828 C.3     1  UNL1        0.0787
     24 C          63.1084   81.1950   12.3040 C.3     1  UNL1        0.0286
     25 C          62.7547   78.3171   10.8798 C.2     1  UNL1        0.2224
     26 O          62.8090   79.4599    9.9098 O.2     1  UNL1       -0.2751
     27 N          62.5430   78.5827   12.3408 N.am    1  UNL1       -0.3059
     28 H          62.5074   77.8326   12.9774 H       1  UNL1        0.1494
     29 C          64.1481   76.5096    9.6381 C.3     1  UNL1        0.0101
     30 C          62.9122   76.9085   10.3887 C.3     1  UNL1        0.0851
@<TRIPOS>BOND
     1    29    30    1
     2    30    25    1
     3    25    26    2
     4    25    27   am
     5    20    27    1
     6    20    21    1
     7    21    22    1
     8    22    23    1
     9    23     1    1
    10     1     2    2
    11     1     3   am
    12     3     4    1
    13     3     5    1
    14     5     6   ar
    15     6     7   ar
    16     7     8   ar
    17     8    11    1
    18    11    12   ar
    19    12    13   ar
    20    13    14   ar
    21    14    15   ar
    22    15    16   ar
    23    16    17   ar
    24    17    18   ar
    25    18    19   ar
    26     8     9   ar
    27     9    10   ar
    28    23    24    1
    29    24    20    1
    30    10     5   ar
    31    19    11   ar
    32    18    13   ar
    33    27    28    1
@<TRIPOS>MOLECULE
*****
 30 33 0 0 0
SMALL
GASTEIGER

@<TRIPOS>ATOM
      1 C          61.0236   93.2929   -0.1404 C.2     1  UNL1        0.2289
      2 O          60.8841   91.8125   -0.3380 O.2     1  UNL1       -0.2745
      3 N          60.9578   93.8748    1.2405 N.am    1  UNL1       -0.2569
      4 C          61.0973   95.3551    1.4380 C.3     1  UNL1        0.1200
      5 C          60.7524   92.9763    2.4240 C.ar    1  UNL1        0.0539
      6 C          61.8938   92.1588    2.9520 C.ar    1  UNL1        0.0151
      7 C          61.6884   91.2603    4.1354 C.ar    1  UNL1        0.0059
      8 C          60.3417   91.1793    4.7908 C.ar    1  UNL1        0.0537
      9 C          59.2003   91.9968    4.2628 C.ar    1  UNL1        0.0059
     10 C          59.4056   92.8953    3.0794 C.ar    1  UNL1        0.0151
     11 C          60.1363   90.2808    5.9743 C.ar    1  UNL1        0.2297
     12 N          59.4339   88.9555    5.9637 N.ar    1  UNL1       -0.2083
     13 C          59.4608   88.4055    7.3590 C.ar    1  UNL1        0.1189
     14 C          58.9234   87.1347    7.9474 C.ar    1  UNL1        0.0223
     15 C          59.1050   86.8493    9.4087 C.ar    1  UNL1        0.0018
     16 C          59.8240   87.8347   10.2817 C.ar    1  UNL1        0.0032
     17 C          60.3614   89.1055    9.6932 C.ar    1  UNL1        0.0391
     18 C          60.1797   89.3909    8.2319 C.ar    1  UNL1        0.1647
     19 O          60.5972   90.5499    7.3761 O.2     1  UNL1       -0.4346
     20 C          62.2762   95.6187   -2.9843 C.3     1  UNL1        0.0720
     21 C          60.8138   95.5294   -3.3058 C.3     1  UNL1        0.0201
     22 C          60.1665   94.6473   -2.2797 C.3     1  UNL1        0.0108
     23 C          61.2290   94.1914   -1.3239 C.3     1  UNL1        0.0787
     24 C          62.5328   94.7917   -1.7594 C.3     1  UNL1        0.0286
     25 C          64.4749   95.6926   -4.3664 C.2     1  UNL1        0.2224
     26 O          64.6221   94.2079   -4.2116 O.2     1  UNL1       -0.2751
     27 N          63.3019   96.3980   -3.7527 N.am    1  UNL1       -0.3059
     28 H          63.2052   97.3724   -3.8543 H       1  UNL1        0.1494
     29 C          66.0844   95.9046   -6.3948 C.3     1  UNL1        0.0101
     30 C          65.5006   96.4719   -5.1349 C.3     1  UNL1        0.0851
@<TRIPOS>BOND
     1    29    30    1
     2    30    25    1
     3    25    26    2
     4    25    27   am
     5    20    27    1
     6    20    21    1
     7    21    22    1
     8    22    23    1
     9    23     1    1
    10     1     2    2
    11     1     3   am
    12     3     4    1
    13     3     5    1
    14     5     6   ar
    15     6     7   ar
    16     7     8   ar
    17     8    11    1
    18    11    12   ar
    19    12    13   ar
    20    13    14   ar
    21    14    15   ar
    22    15    16   ar
    23    16    17   ar
    24    17    18   ar
    25    18    19   ar
    26     8     9   ar
    27     9    10   ar
    28    23    24    1
    29    24    20    1
    30    10     5   ar
    31    19    11   ar
    32    18    13   ar
    33    27    28    1
@<TRIPOS>MOLECULE
*****
 30 33 0 0 0
SMALL
GASTEIGER

@<TRIPOS>ATOM
      1 C          63.1236   83.8032   12.7826 C.2     1  UNL1        0.2289
      2 O          63.8443   84.1892   11.5249 O.2     1  UNL1       -0.2745
      3 N          62.8764   84.8277   13.8499 N.am    1  UNL1       -0.2569
      4 C          62.1558   84.4416   15.1075 C.3     1  UNL1        0.1200
      5 C          63.3497   86.2382   13.6596 C.ar    1  UNL1        0.0539
      6 C          64.2356   86.8772   14.6876 C.ar    1  UNL1        0.0151
      7 C          64.7090   88.2878   14.4973 C.ar    1  UNL1        0.0059
      8 C          64.2965   89.0594   13.2790 C.ar    1  UNL1        0.0537
      9 C          63.4106   88.4204   12.2510 C.ar    1  UNL1        0.0059
     10 C          62.9372   87.0099   12.4413 C.ar    1  UNL1        0.0151
     11 C          64.7698   90.4700   13.0887 C.ar    1  UNL1        0.2297
     12 N          65.4779   91.3079   14.1116 N.ar    1  UNL1       -0.2083
     13 C          65.7639   92.6461   13.4972 C.ar    1  UNL1        0.1189
     14 C          66.4395   93.8731   14.0337 C.ar    1  UNL1        0.0223
     15 C          66.5838   95.0892   13.1676 C.ar    1  UNL1        0.0018
     16 C          66.0524   95.0783   11.7649 C.ar    1  UNL1        0.0032
     17 C          65.3768   93.8513   11.2283 C.ar    1  UNL1        0.0391
     18 C          65.2326   92.6352   12.0945 C.ar    1  UNL1        0.1647
     19 O          64.6182   91.2903   11.8421 O.2     1  UNL1       -0.4346
     20 C          61.4447   80.4536   13.7960 C.3     1  UNL1        0.0720
     21 C          62.3991   79.9902   12.7356 C.3     1  UNL1        0.0201
     22 C          63.1442   81.1886   12.2269 C.3     1  UNL1        0.0108
     23 C          62.6503   82.3926   12.9729 C.3     1  UNL1        0.0787
     24 C          61.5999   81.9383   13.9427 C.3     1  UNL1        0.0286
     25 C          59.0306   79.8824   14.5678 C.2     1  UNL1        0.2224
     26 O          58.5044   81.0489   13.7853 O.2     1  UNL1       -0.2751
     27 N          60.5008   79.5847   14.5732 N.am    1  UNL1       -0.3059
     28 H          60.8461   78.8191   15.0868 H       1  UNL1        0.1494
     29 C          57.2143   79.6158   16.4064 C.3     1  UNL1        0.0101
     30 C          58.0866   79.0136   15.3450 C.3     1  UNL1        0.0851
@<TRIPOS>BOND
     1    29    30    1
     2    30    25    1
     3    25    26    2
     4    25    27   am
     5    20    27    1
     6    20    21    1
     7    21    22    1
     8    22    23    1
     9    23     1    1
    10     1     2    2
    11     1     3   am
    12     3     4    1
    13     3     5    1
    14     5     6   ar
    15     6     7   ar
    16     7     8   ar
    17     8    11    1
    18    11    12   ar
    19    12    13   ar
    20    13    14   ar
    21    14    15   ar
    22    15    16   ar
    23    16    17   ar
    24    17    18   ar
    25    18    19   ar
    26     8     9   ar
    27     9    10   ar
    28    23    24    1
    29    24    20    1
    30    10     5   ar
    31    19    11   ar
    32    18    13   ar
    33    27    28    1
