@<TRIPOS>MOLECULE
*****
 32 35 0 0 0
SMALL
GASTEIGER

@<TRIPOS>ATOM
      1 N          62.7184   84.7896   12.6346 N.ar    1  UNL1       -0.2286
      2 C          62.0772   85.6093   11.5544 C.ar    1  UNL1        0.0990
      3 C          62.5587   87.0227   11.6975 C.ar    1  UNL1        0.0338
      4 C          63.4975   87.0765   12.8662 C.ar    1  UNL1        0.0981
      5 N          63.5962   85.6963   13.4454 N.ar    1  UNL1       -0.1680
      6 C          63.9790   88.4898   13.0094 C.3     1  UNL1        0.1414
      7 N          63.3378   89.3097   11.9291 N.am    1  UNL1       -0.2660
      8 C          63.5391   90.7782   11.6999 C.2     1  UNL1        0.2525
      9 O          62.8267   91.4661   10.5731 O.2     1  UNL1       -0.2698
     10 C          62.4601   88.4028   11.1184 C.3     1  UNL1        0.1236
     11 C          62.9454   79.8933   10.9099 C.3     1  UNL1        0.0521
     12 C          62.6307   80.8727   12.0015 C.ar    1  UNL1        0.0609
     13 C          62.8319   82.3414   11.7723 C.ar    1  UNL1        0.0339
     14 C          62.5172   83.3209   12.8639 C.ar    1  UNL1        0.0855
     15 C          62.0012   82.8318   14.1847 C.ar    1  UNL1        0.0398
     16 C          61.8000   81.3631   14.4138 C.ar    1  UNL1        0.1000
     17 N          62.1147   80.3835   13.3223 N.ar    1  UNL1       -0.2480
     18 C          64.4527   91.5591   12.5974 C.ar    1  UNL1        0.0881
     19 C          64.2464   91.5336   14.0829 C.ar    1  UNL1        0.0178
     20 C          65.1601   92.3146   14.9805 C.ar    1  UNL1        0.0688
     21 C          66.2798   93.1210   14.3926 C.ar    1  UNL1        0.0134
     22 C          66.4861   93.1465   12.9070 C.ar    1  UNL1        0.0377
     23 C          65.5725   92.3656   12.0095 C.ar    1  UNL1        0.1431
     24 C          64.9537   92.2890   16.4660 C.1     1  UNL1        0.1004
     25 N          64.7473   92.2634   17.9515 N.1     1  UNL1       -0.1908
     26 O          65.7787   92.3911   10.5239 O.3     1  UNL1       -0.4702
     27 C          66.7515   93.3590    9.9183 C.3     1  UNL1        0.2599
     28 C          66.3673   94.7985    9.7443 C.3     1  UNL1        0.0566
     29 C          68.1084   92.8875    9.4866 C.3     1  UNL1        0.4340
     30 F          69.4653   92.4158    9.0550 F       1  UNL1       -0.1664
     31 F          68.5455   94.3109    9.3057 F       1  UNL1       -0.1664
     32 F          67.6713   91.4639    9.6675 F       1  UNL1       -0.1664
@<TRIPOS>BOND
     1    11    12    1
     2    12    13   ar
     3    13    14   ar
     4    14     1    1
     5     1     2   ar
     6     2     3   ar
     7     3     4   ar
     8     4     5   ar
     9     4     6    1
    10     6     7    1
    11     7     8   am
    12     8     9    2
    13     8    18    1
    14    18    19   ar
    15    19    20   ar
    16    20    24    1
    17    24    25    3
    18    20    21   ar
    19    21    22   ar
    20    22    23   ar
    21    23    26    1
    22    26    27    1
    23    27    28    1
    24    27    29    1
    25    29    30    1
    26    29    31    1
    27    29    32    1
    28     7    10    1
    29    14    15   ar
    30    15    16   ar
    31    16    17   ar
    32    17    12   ar
    33     5     1   ar
    34    23    18   ar
    35    10     3    1
@<TRIPOS>MOLECULE
*****
 32 35 0 0 0
SMALL
GASTEIGER

@<TRIPOS>ATOM
      1 N          63.0944   83.1828   13.5935 N.ar    1  UNL1       -0.2286
      2 C          62.8109   83.6778   14.9808 C.ar    1  UNL1        0.0990
      3 C          63.1426   85.1399   15.0280 C.ar    1  UNL1        0.0338
      4 C          63.6311   85.5485   13.6699 C.ar    1  UNL1        0.0981
      5 N          63.6013   84.3389   12.7833 N.ar    1  UNL1       -0.1680
      6 C          63.9628   87.0106   13.7171 C.3     1  UNL1        0.1414
      7 N          63.6793   87.5057   15.1044 N.am    1  UNL1       -0.2660
      8 C          63.8693   88.9102   15.5953 C.2     1  UNL1        0.2525
      9 O          63.5413   89.2587   17.0169 O.2     1  UNL1       -0.2698
     10 C          63.1724   86.3495   15.9145 C.3     1  UNL1        0.1236
     11 C          63.0148   79.7515    9.6922 C.3     1  UNL1        0.0521
     12 C          62.8646   80.0625   11.1518 C.ar    1  UNL1        0.0609
     13 C          63.0546   81.4671   11.6429 C.ar    1  UNL1        0.0339
     14 C          62.9044   81.7782   13.1026 C.ar    1  UNL1        0.0855
     15 C          62.5641   80.6847   14.0713 C.ar    1  UNL1        0.0398
     16 C          62.3741   79.2801   13.5802 C.ar    1  UNL1        0.1000
     17 N          62.5243   78.9690   12.1206 N.ar    1  UNL1       -0.2480
     18 C          64.3874   89.9663   14.6646 C.ar    1  UNL1        0.0881
     19 C          65.7471   90.5597   14.8862 C.ar    1  UNL1        0.0178
     20 C          66.2653   91.6159   13.9555 C.ar    1  UNL1        0.0688
     21 C          65.4237   92.0787   12.8033 C.ar    1  UNL1        0.0134
     22 C          64.0639   91.4853   12.5818 C.ar    1  UNL1        0.0377
     23 C          63.5458   90.4292   13.5124 C.ar    1  UNL1        0.1431
     24 C          67.6250   92.2092   14.1771 C.1     1  UNL1        0.1004
     25 N          68.9847   92.8025   14.3989 N.1     1  UNL1       -0.1908
     26 O          62.1861   89.8358   13.2909 O.3     1  UNL1       -0.4702
     27 C          61.6678   89.6485   11.8958 C.3     1  UNL1        0.2599
     28 C          62.4439   88.8244   10.9117 C.3     1  UNL1        0.0566
     29 C          60.3733   90.2852   11.4848 C.3     1  UNL1        0.4340
     30 F          59.0789   90.9219   11.0738 F       1  UNL1       -0.1664
     31 F          59.7270   89.7825   12.7417 F       1  UNL1       -0.1664
     32 F          61.0196   90.7879   10.2279 F       1  UNL1       -0.1664
@<TRIPOS>BOND
     1    11    12    1
     2    12    13   ar
     3    13    14   ar
     4    14     1    1
     5     1     2   ar
     6     2     3   ar
     7     3     4   ar
     8     4     5   ar
     9     4     6    1
    10     6     7    1
    11     7     8   am
    12     8     9    2
    13     8    18    1
    14    18    19   ar
    15    19    20   ar
    16    20    24    1
    17    24    25    3
    18    20    21   ar
    19    21    22   ar
    20    22    23   ar
    21    23    26    1
    22    26    27    1
    23    27    28    1
    24    27    29    1
    25    29    30    1
    26    29    31    1
    27    29    32    1
    28     7    10    1
    29    14    15   ar
    30    15    16   ar
    31    16    17   ar
    32    17    12   ar
    33     5     1   ar
    34    23    18   ar
    35    10     3    1
@<TRIPOS>MOLECULE
*****
 32 35 0 0 0
SMALL
GASTEIGER

@<TRIPOS>ATOM
      1 N          63.1927   84.4245   14.5523 N.ar    1  UNL1       -0.2286
      2 C          62.6260   85.2056   15.7006 C.ar    1  UNL1        0.0990
      3 C          63.1058   86.6217   15.5794 C.ar    1  UNL1        0.0338
      4 C          63.9689   86.7157   14.3562 C.ar    1  UNL1        0.0981
      5 N          64.0226   85.3577   13.7214 N.ar    1  UNL1       -0.1680
      6 C          64.4486   88.1317   14.2350 C.3     1  UNL1        0.1414
      7 N          63.8819   88.9130   15.3833 N.am    1  UNL1       -0.2660
      8 C          64.1059   90.3713   15.6533 C.2     1  UNL1        0.2525
      9 O          63.4704   91.0192   16.8477 O.2     1  UNL1       -0.2698
     10 C          63.0520   87.9797   16.2142 C.3     1  UNL1        0.1236
     11 C          59.9845   80.3506   14.2180 C.3     1  UNL1        0.0521
     12 C          61.3646   80.9291   14.1151 C.ar    1  UNL1        0.0609
     13 C          61.5887   82.3875   14.3852 C.ar    1  UNL1        0.0339
     14 C          62.9688   82.9660   14.2822 C.ar    1  UNL1        0.0855
     15 C          64.1249   82.0862   13.9093 C.ar    1  UNL1        0.0398
     16 C          63.9009   80.6278   13.6393 C.ar    1  UNL1        0.1000
     17 N          62.5208   80.0492   13.7422 N.ar    1  UNL1       -0.2480
     18 C          64.9653   91.1819   14.7291 C.ar    1  UNL1        0.0881
     19 C          66.3297   91.6239   15.1683 C.ar    1  UNL1        0.0178
     20 C          67.1892   92.4345   14.2439 C.ar    1  UNL1        0.0688
     21 C          66.6843   92.8031   12.8805 C.ar    1  UNL1        0.0134
     22 C          65.3198   92.3611   12.4412 C.ar    1  UNL1        0.0377
     23 C          64.4603   91.5505   13.3655 C.ar    1  UNL1        0.1431
     24 C          68.5536   92.8765   14.6833 C.1     1  UNL1        0.1004
     25 N          69.9180   93.3184   15.1227 N.1     1  UNL1       -0.1908
     26 O          63.0959   91.1085   12.9263 O.3     1  UNL1       -0.4702
     27 C          62.8987   90.5356   11.5541 C.3     1  UNL1        0.2599
     28 C          63.2480   91.3501   10.3440 C.3     1  UNL1        0.0566
     29 C          62.3521   89.1482   11.3921 C.3     1  UNL1        0.4340
     30 F          61.8055   87.7607   11.2301 F       1  UNL1       -0.1664
     31 F          62.9440   89.0757   10.0157 F       1  UNL1       -0.1664
     32 F          61.7602   89.2206   12.7685 F       1  UNL1       -0.1664
@<TRIPOS>BOND
     1    11    12    1
     2    12    13   ar
     3    13    14   ar
     4    14     1    1
     5     1     2   ar
     6     2     3   ar
     7     3     4   ar
     8     4     5   ar
     9     4     6    1
    10     6     7    1
    11     7     8   am
    12     8     9    2
    13     8    18    1
    14    18    19   ar
    15    19    20   ar
    16    20    24    1
    17    24    25    3
    18    20    21   ar
    19    21    22   ar
    20    22    23   ar
    21    23    26    1
    22    26    27    1
    23    27    28    1
    24    27    29    1
    25    29    30    1
    26    29    31    1
    27    29    32    1
    28     7    10    1
    29    14    15   ar
    30    15    16   ar
    31    16    17   ar
    32    17    12   ar
    33     5     1   ar
    34    23    18   ar
    35    10     3    1
@<TRIPOS>MOLECULE
*****
 32 35 0 0 0
SMALL
GASTEIGER

@<TRIPOS>ATOM
      1 N          62.5825   84.0912   12.0653 N.ar    1  UNL1       -0.2286
      2 C          61.6066   84.8899   11.2530 C.ar    1  UNL1        0.0990
      3 C          61.9886   86.3364   11.3607 C.ar    1  UNL1        0.0338
      4 C          63.2004   86.4317   12.2395 C.ar    1  UNL1        0.0981
      5 N          63.5675   85.0441   12.6750 N.ar    1  UNL1       -0.1680
      6 C          63.5823   87.8783   12.3472 C.3     1  UNL1        0.1414
      7 N          62.6065   88.6771   11.5349 N.am    1  UNL1       -0.2660
      8 C          62.6143   90.1670   11.3626 C.2     1  UNL1        0.2525
      9 O          61.5687   90.8296   10.5153 O.2     1  UNL1       -0.2698
     10 C          61.6215   87.7241   10.9252 C.3     1  UNL1        0.1236
     11 C          63.0108   79.3248   10.0409 C.3     1  UNL1        0.0521
     12 C          62.7889   80.2178   11.2254 C.ar    1  UNL1        0.0609
     13 C          62.7966   81.7079   11.0531 C.ar    1  UNL1        0.0339
     14 C          62.5747   82.6011   12.2376 C.ar    1  UNL1        0.0855
     15 C          62.3450   82.0042   13.5944 C.ar    1  UNL1        0.0398
     16 C          62.3372   80.5141   13.7667 C.ar    1  UNL1        0.1000
     17 N          62.5591   79.6210   12.5822 N.ar    1  UNL1       -0.2480
     18 C          63.6677   90.9946   12.0375 C.ar    1  UNL1        0.0881
     19 C          64.5615   91.8812   11.2220 C.ar    1  UNL1        0.0178
     20 C          65.6149   92.7089   11.8970 C.ar    1  UNL1        0.0688
     21 C          65.7745   92.6498   13.3872 C.ar    1  UNL1        0.0134
     22 C          64.8806   91.7632   14.2027 C.ar    1  UNL1        0.0377
     23 C          63.8273   90.9356   13.5278 C.ar    1  UNL1        0.1431
     24 C          66.5087   93.5955   11.0814 C.1     1  UNL1        0.1004
     25 N          67.4024   94.4820   10.2658 N.1     1  UNL1       -0.1908
     26 O          62.9334   90.0490   14.3433 O.3     1  UNL1       -0.4702
     27 C          63.3520   89.6239   15.7195 C.3     1  UNL1        0.2599
     28 C          63.5713   90.6534   16.7882 C.3     1  UNL1        0.0566
     29 C          63.5513   88.1694   16.0271 C.3     1  UNL1        0.4340
     30 F          63.7505   86.7149   16.3348 F       1  UNL1       -0.1664
     31 F          64.6260   88.0959   14.9834 F       1  UNL1       -0.1664
     32 F          62.4764   88.2429   17.0709 F       1  UNL1       -0.1664
@<TRIPOS>BOND
     1    11    12    1
     2    12    13   ar
     3    13    14   ar
     4    14     1    1
     5     1     2   ar
     6     2     3   ar
     7     3     4   ar
     8     4     5   ar
     9     4     6    1
    10     6     7    1
    11     7     8   am
    12     8     9    2
    13     8    18    1
    14    18    19   ar
    15    19    20   ar
    16    20    24    1
    17    24    25    3
    18    20    21   ar
    19    21    22   ar
    20    22    23   ar
    21    23    26    1
    22    26    27    1
    23    27    28    1
    24    27    29    1
    25    29    30    1
    26    29    31    1
    27    29    32    1
    28     7    10    1
    29    14    15   ar
    30    15    16   ar
    31    16    17   ar
    32    17    12   ar
    33     5     1   ar
    34    23    18   ar
    35    10     3    1
@<TRIPOS>MOLECULE
*****
 32 35 0 0 0
SMALL
GASTEIGER

@<TRIPOS>ATOM
      1 N          59.7213   89.1859    7.3197 N.ar    1  UNL1       -0.2286
      2 C          59.7060   87.6861    7.3076 C.ar    1  UNL1        0.0990
      3 C          60.4821   87.2051    8.4977 C.ar    1  UNL1        0.0338
      4 C          60.9770   88.4077    9.2453 C.ar    1  UNL1        0.0981
      5 N          60.5068   89.6319    8.5172 N.ar    1  UNL1       -0.1680
      6 C          61.7531   87.9267   10.4354 C.3     1  UNL1        0.1414
      7 N          61.7378   86.4267   10.4234 N.am    1  UNL1       -0.2660
      8 C          62.3930   85.5303   11.4318 C.2     1  UNL1        0.2525
      9 O          62.2920   84.0405   11.2886 O.2     1  UNL1       -0.2698
     10 C          60.9523   85.9808    9.2258 C.3     1  UNL1        0.1236
     11 C          60.0904   92.7174    3.5259 C.3     1  UNL1        0.0521
     12 C          59.2507   91.8482    4.4143 C.ar    1  UNL1        0.0609
     13 C          59.9058   90.9516    5.4228 C.ar    1  UNL1        0.0339
     14 C          59.0661   90.0825    6.3113 C.ar    1  UNL1        0.0855
     15 C          57.5711   90.1099    6.1913 C.ar    1  UNL1        0.0398
     16 C          56.9160   91.0065    5.1829 C.ar    1  UNL1        0.1000
     17 N          57.7557   91.8756    4.2944 N.ar    1  UNL1       -0.2480
     18 C          63.1492   86.1234   12.5834 C.ar    1  UNL1        0.0881
     19 C          63.2119   87.6126   12.7520 C.ar    1  UNL1        0.0178
     20 C          63.9681   88.2058   13.9037 C.ar    1  UNL1        0.0688
     21 C          64.6616   87.3099   14.8867 C.ar    1  UNL1        0.0134
     22 C          64.5989   85.8207   14.7181 C.ar    1  UNL1        0.0377
     23 C          63.8427   85.2275   13.5665 C.ar    1  UNL1        0.1431
     24 C          64.0308   89.6950   14.0723 C.1     1  UNL1        0.1004
     25 N          64.0935   91.1842   14.2408 N.1     1  UNL1       -0.1908
     26 O          63.7800   83.7383   13.3978 O.3     1  UNL1       -0.4702
     27 C          62.7832   82.9362   14.1807 C.3     1  UNL1        0.2599
     28 C          62.0324   83.5718   15.3131 C.3     1  UNL1        0.0566
     29 C          62.5373   81.4983   13.8314 C.3     1  UNL1        0.4340
     30 F          62.2914   80.0605   13.4819 F       1  UNL1       -0.1664
     31 F          61.2474   81.5331   14.5962 F       1  UNL1       -0.1664
     32 F          63.8272   81.4635   13.0665 F       1  UNL1       -0.1664
@<TRIPOS>BOND
     1    11    12    1
     2    12    13   ar
     3    13    14   ar
     4    14     1    1
     5     1     2   ar
     6     2     3   ar
     7     3     4   ar
     8     4     5   ar
     9     4     6    1
    10     6     7    1
    11     7     8   am
    12     8     9    2
    13     8    18    1
    14    18    19   ar
    15    19    20   ar
    16    20    24    1
    17    24    25    3
    18    20    21   ar
    19    21    22   ar
    20    22    23   ar
    21    23    26    1
    22    26    27    1
    23    27    28    1
    24    27    29    1
    25    29    30    1
    26    29    31    1
    27    29    32    1
    28     7    10    1
    29    14    15   ar
    30    15    16   ar
    31    16    17   ar
    32    17    12   ar
    33     5     1   ar
    34    23    18   ar
    35    10     3    1
@<TRIPOS>MOLECULE
*****
 32 35 0 0 0
SMALL
GASTEIGER

@<TRIPOS>ATOM
      1 N          63.1081   83.4299   13.0529 N.ar    1  UNL1       -0.2286
      2 C          63.4176   84.0916   14.3630 C.ar    1  UNL1        0.0990
      3 C          63.5723   85.5627   14.1142 C.ar    1  UNL1        0.0338
      4 C          63.3584   85.8102   12.6503 C.ar    1  UNL1        0.0981
      5 N          63.0715   84.4921   11.9944 N.ar    1  UNL1       -0.1680
      6 C          63.5131   87.2813   12.4014 C.3     1  UNL1        0.1414
      7 N          63.8226   87.9431   13.7115 N.am    1  UNL1       -0.2660
      8 C          64.0547   89.4094   13.9255 C.2     1  UNL1        0.2525
      9 O          64.3561   89.9283   15.3003 O.2     1  UNL1       -0.2698
     10 C          63.8592   86.8809   14.7700 C.3     1  UNL1        0.1236
     11 C          62.9478   79.3147    9.8845 C.3     1  UNL1        0.0521
     12 C          62.7958   79.9058   11.2547 C.ar    1  UNL1        0.0609
     13 C          63.0279   81.3723   11.4688 C.ar    1  UNL1        0.0339
     14 C          62.8760   81.9635   12.8389 C.ar    1  UNL1        0.0855
     15 C          62.4919   81.0884   13.9950 C.ar    1  UNL1        0.0398
     16 C          62.2597   79.6220   13.7809 C.ar    1  UNL1        0.1000
     17 N          62.4117   79.0307   12.4108 N.ar    1  UNL1       -0.2480
     18 C          63.9856   90.3569   12.7647 C.ar    1  UNL1        0.0881
     19 C          65.1230   91.2969   12.4951 C.ar    1  UNL1        0.0178
     20 C          65.0539   92.2445   11.3343 C.ar    1  UNL1        0.0688
     21 C          63.8473   92.2521   10.4432 C.ar    1  UNL1        0.0134
     22 C          62.7098   91.3122   10.7128 C.ar    1  UNL1        0.0377
     23 C          62.7790   90.3646   11.8736 C.ar    1  UNL1        0.1431
     24 C          66.1914   93.1844   11.0647 C.1     1  UNL1        0.1004
     25 N          67.3290   94.1242   10.7952 N.1     1  UNL1       -0.1908
     26 O          61.6415   89.4247   12.1432 O.3     1  UNL1       -0.4702
     27 C          60.3968   89.4947   11.3091 C.3     1  UNL1        0.2599
     28 C          59.3904   90.5799   11.5532 C.3     1  UNL1        0.0566
     29 C          60.1585   88.4796   10.2308 C.3     1  UNL1        0.4340
     30 F          59.9201   87.4645    9.1526 F       1  UNL1       -0.1664
     31 F          59.9630   89.5838    9.2345 F       1  UNL1       -0.1664
     32 F          60.3539   87.3754   11.2271 F       1  UNL1       -0.1664
@<TRIPOS>BOND
     1    11    12    1
     2    12    13   ar
     3    13    14   ar
     4    14     1    1
     5     1     2   ar
     6     2     3   ar
     7     3     4   ar
     8     4     5   ar
     9     4     6    1
    10     6     7    1
    11     7     8   am
    12     8     9    2
    13     8    18    1
    14    18    19   ar
    15    19    20   ar
    16    20    24    1
    17    24    25    3
    18    20    21   ar
    19    21    22   ar
    20    22    23   ar
    21    23    26    1
    22    26    27    1
    23    27    28    1
    24    27    29    1
    25    29    30    1
    26    29    31    1
    27    29    32    1
    28     7    10    1
    29    14    15   ar
    30    15    16   ar
    31    16    17   ar
    32    17    12   ar
    33     5     1   ar
    34    23    18   ar
    35    10     3    1
@<TRIPOS>MOLECULE
*****
 32 35 0 0 0
SMALL
GASTEIGER

@<TRIPOS>ATOM
      1 N          65.0264   91.2390   13.7830 N.ar    1  UNL1       -0.2286
      2 C          63.7493   90.9255   14.5047 C.ar    1  UNL1        0.0990
      3 C          62.8033   90.3006   13.5227 C.ar    1  UNL1        0.0338
      4 C          63.4957   90.2277   12.1940 C.ar    1  UNL1        0.0981
      5 N          64.8696   90.8077   12.3549 N.ar    1  UNL1       -0.1680
      6 C          62.5497   89.6027   11.2119 C.3     1  UNL1        0.1414
      7 N          61.2726   89.2893   11.9336 N.am    1  UNL1       -0.2660
      8 C          60.0529   88.6558   11.3328 C.2     1  UNL1        0.2525
      9 O          58.8434   88.4021   12.1830 O.2     1  UNL1       -0.2698
     10 C          61.4294   89.7206   13.3618 C.3     1  UNL1        0.1236
     11 C          70.1443   92.1319   13.6864 C.3     1  UNL1        0.0521
     12 C          68.8051   92.3190   14.3356 C.ar    1  UNL1        0.0609
     13 C          67.5853   91.6855   13.7348 C.ar    1  UNL1        0.0339
     14 C          66.2460   91.8725   14.3839 C.ar    1  UNL1        0.0855
     15 C          66.1265   92.6930   15.6339 C.ar    1  UNL1        0.0398
     16 C          67.3463   93.3264   16.2347 C.ar    1  UNL1        0.1000
     17 N          68.6855   93.1394   15.5856 N.ar    1  UNL1       -0.2480
     18 C          60.0427   88.2760    9.8817 C.ar    1  UNL1        0.0881
     19 C          59.6633   89.2902    8.8437 C.ar    1  UNL1        0.0178
     20 C          59.6531   88.9103    7.3925 C.ar    1  UNL1        0.0688
     21 C          60.0222   87.5165    6.9795 C.ar    1  UNL1        0.0134
     22 C          60.4016   86.5022    8.0175 C.ar    1  UNL1        0.0377
     23 C          60.4118   86.8820    9.4686 C.ar    1  UNL1        0.1431
     24 C          59.2737   89.9246    6.3546 C.1     1  UNL1        0.1004
     25 N          58.8944   90.9388    5.3166 N.1     1  UNL1       -0.1908
     26 O          60.7912   85.8679   10.5066 O.3     1  UNL1       -0.4702
     27 C          62.2056   85.3757   10.5926 C.3     1  UNL1        0.2599
     28 C          62.9994   85.1521    9.3397 C.3     1  UNL1        0.0566
     29 C          62.8261   85.1071   11.9316 C.3     1  UNL1        0.4340
     30 F          63.4466   84.8384   13.2705 F       1  UNL1       -0.1664
     31 F          63.0369   86.5790   12.1291 F       1  UNL1       -0.1664
     32 F          62.6153   83.6351   11.7340 F       1  UNL1       -0.1664
@<TRIPOS>BOND
     1    11    12    1
     2    12    13   ar
     3    13    14   ar
     4    14     1    1
     5     1     2   ar
     6     2     3   ar
     7     3     4   ar
     8     4     5   ar
     9     4     6    1
    10     6     7    1
    11     7     8   am
    12     8     9    2
    13     8    18    1
    14    18    19   ar
    15    19    20   ar
    16    20    24    1
    17    24    25    3
    18    20    21   ar
    19    21    22   ar
    20    22    23   ar
    21    23    26    1
    22    26    27    1
    23    27    28    1
    24    27    29    1
    25    29    30    1
    26    29    31    1
    27    29    32    1
    28     7    10    1
    29    14    15   ar
    30    15    16   ar
    31    16    17   ar
    32    17    12   ar
    33     5     1   ar
    34    23    18   ar
    35    10     3    1
@<TRIPOS>MOLECULE
*****
 32 35 0 0 0
SMALL
GASTEIGER

@<TRIPOS>ATOM
      1 N          60.0959   88.9885    8.0504 N.ar    1  UNL1       -0.2286
      2 C          61.0844   89.5953    9.0015 C.ar    1  UNL1        0.0990
      3 C          61.5427   88.5203    9.9419 C.ar    1  UNL1        0.0338
      4 C          60.8375   87.2491    9.5719 C.ar    1  UNL1        0.0981
      5 N          59.9433   87.5385    8.4029 N.ar    1  UNL1       -0.1680
      6 C          61.2958   86.1741   10.5123 C.3     1  UNL1        0.1414
      7 N          62.2844   86.7809   11.4635 N.am    1  UNL1       -0.2660
      8 C          62.9954   86.0637   12.5724 C.2     1  UNL1        0.2525
      9 O          63.9618   86.8058   13.4474 O.2     1  UNL1       -0.2698
     10 C          62.4370   88.2309   11.1109 C.3     1  UNL1        0.1236
     11 C          60.2141   92.1852    3.9556 C.3     1  UNL1        0.0521
     12 C          59.4439   91.3042    4.8939 C.ar    1  UNL1        0.0609
     13 C          60.1549   90.5869    6.0030 C.ar    1  UNL1        0.0339
     14 C          59.3848   89.7058    6.9414 C.ar    1  UNL1        0.0855
     15 C          57.9036   89.5420    6.7707 C.ar    1  UNL1        0.0398
     16 C          57.1925   90.2593    5.6617 C.ar    1  UNL1        0.1000
     17 N          57.9627   91.1404    4.7233 N.ar    1  UNL1       -0.2480
     18 C          62.7402   84.6042   12.8065 C.ar    1  UNL1        0.0881
     19 C          62.9503   83.6184   11.6956 C.ar    1  UNL1        0.0178
     20 C          62.6951   82.1589   11.9297 C.ar    1  UNL1        0.0688
     21 C          62.2299   81.6852   13.2747 C.ar    1  UNL1        0.0134
     22 C          62.0198   82.6709   14.3857 C.ar    1  UNL1        0.0377
     23 C          62.2750   84.1304   14.1516 C.ar    1  UNL1        0.1431
     24 C          62.9051   81.1732   10.8187 C.1     1  UNL1        0.1004
     25 N          63.1152   80.1877    9.7076 N.1     1  UNL1       -0.1908
     26 O          62.0650   85.1161   15.2625 O.3     1  UNL1       -0.4702
     27 C          63.2211   85.5363   16.1210 C.3     1  UNL1        0.2599
     28 C          64.5450   84.8439   15.9874 C.3     1  UNL1        0.0566
     29 C          63.0533   86.6488   17.1129 C.3     1  UNL1        0.4340
     30 F          62.8854   87.7613   18.1050 F       1  UNL1       -0.1664
     31 F          63.7344   87.5940   16.1681 F       1  UNL1       -0.1664
     32 F          62.3721   85.7036   18.0578 F       1  UNL1       -0.1664
@<TRIPOS>BOND
     1    11    12    1
     2    12    13   ar
     3    13    14   ar
     4    14     1    1
     5     1     2   ar
     6     2     3   ar
     7     3     4   ar
     8     4     5   ar
     9     4     6    1
    10     6     7    1
    11     7     8   am
    12     8     9    2
    13     8    18    1
    14    18    19   ar
    15    19    20   ar
    16    20    24    1
    17    24    25    3
    18    20    21   ar
    19    21    22   ar
    20    22    23   ar
    21    23    26    1
    22    26    27    1
    23    27    28    1
    24    27    29    1
    25    29    30    1
    26    29    31    1
    27    29    32    1
    28     7    10    1
    29    14    15   ar
    30    15    16   ar
    31    16    17   ar
    32    17    12   ar
    33     5     1   ar
    34    23    18   ar
    35    10     3    1
@<TRIPOS>MOLECULE
*****
 32 35 0 0 0
SMALL
GASTEIGER

@<TRIPOS>ATOM
      1 N          63.1740   82.8087   13.0143 N.ar    1  UNL1       -0.2286
      2 C          63.5879   83.3292   14.3588 C.ar    1  UNL1        0.0990
      3 C          63.7087   84.8211   14.2611 C.ar    1  UNL1        0.0338
      4 C          63.3693   85.2227   12.8563 C.ar    1  UNL1        0.0981
      5 N          63.0388   83.9789   12.0857 N.ar    1  UNL1       -0.1680
      6 C          63.4900   86.7146   12.7586 C.3     1  UNL1        0.1414
      7 N          63.9040   87.2352   14.1031 N.am    1  UNL1       -0.2660
      8 C          64.1412   88.6734   14.4569 C.2     1  UNL1        0.2525
      9 O          64.5537   89.0448   15.8505 O.2     1  UNL1       -0.2698
     10 C          64.0391   86.0649   15.0317 C.3     1  UNL1        0.1236
     11 C          62.8802   79.0414    9.4477 C.3     1  UNL1        0.0521
     12 C          62.7899   79.4867   10.8771 C.ar    1  UNL1        0.0609
     13 C          63.0271   80.9250   11.2311 C.ar    1  UNL1        0.0339
     14 C          62.9367   81.3704   12.6605 C.ar    1  UNL1        0.0855
     15 C          62.6092   80.3776   13.7362 C.ar    1  UNL1        0.0398
     16 C          62.3720   78.9394   13.3823 C.ar    1  UNL1        0.1000
     17 N          62.4623   78.4939   11.9528 N.ar    1  UNL1       -0.2480
     18 C          63.9659   89.7402   13.4172 C.ar    1  UNL1        0.0881
     19 C          62.8519   89.6378   12.4179 C.ar    1  UNL1        0.0178
     20 C          62.6766   90.7048   11.3781 C.ar    1  UNL1        0.0688
     21 C          63.6152   91.8740   11.3377 C.ar    1  UNL1        0.0134
     22 C          64.7293   91.9765   12.3369 C.ar    1  UNL1        0.0377
     23 C          64.9046   90.9096   13.3767 C.ar    1  UNL1        0.1431
     24 C          61.5626   90.6022   10.3789 C.1     1  UNL1        0.1004
     25 N          60.4486   90.4997    9.3796 N.1     1  UNL1       -0.1908
     26 O          66.0185   91.0120   14.3759 O.3     1  UNL1       -0.4702
     27 C          66.0130   92.1125   15.3952 C.3     1  UNL1        0.2599
     28 C          64.8452   92.2690   16.3235 C.3     1  UNL1        0.0566
     29 C          67.1751   93.0565   15.4861 C.3     1  UNL1        0.4340
     30 F          68.3373   94.0004   15.5770 F       1  UNL1       -0.1664
     31 F          66.4734   94.0092   14.5641 F       1  UNL1       -0.1664
     32 F          67.8768   92.1037   16.4081 F       1  UNL1       -0.1664
@<TRIPOS>BOND
     1    11    12    1
     2    12    13   ar
     3    13    14   ar
     4    14     1    1
     5     1     2   ar
     6     2     3   ar
     7     3     4   ar
     8     4     5   ar
     9     4     6    1
    10     6     7    1
    11     7     8   am
    12     8     9    2
    13     8    18    1
    14    18    19   ar
    15    19    20   ar
    16    20    24    1
    17    24    25    3
    18    20    21   ar
    19    21    22   ar
    20    22    23   ar
    21    23    26    1
    22    26    27    1
    23    27    28    1
    24    27    29    1
    25    29    30    1
    26    29    31    1
    27    29    32    1
    28     7    10    1
    29    14    15   ar
    30    15    16   ar
    31    16    17   ar
    32    17    12   ar
    33     5     1   ar
    34    23    18   ar
    35    10     3    1
