@<TRIPOS>MOLECULE
*****
 38 43 0 0 0
SMALL
GASTEIGER

@<TRIPOS>ATOM
      1 C          65.0453   91.6634   12.6757 C.ar    1  UNL1        0.0222
      2 C          63.8252   90.9419   12.1850 C.ar    1  UNL1        0.0401
      3 C          63.0171   90.1051   13.1320 C.ar    1  UNL1        0.1577
      4 C          63.4291   89.9898   14.5696 C.ar    1  UNL1        0.1356
      5 N          64.6492   90.7113   15.0603 N.ar    1  UNL1       -0.2406
      6 C          65.4573   91.5481   14.1134 C.ar    1  UNL1        0.0847
      7 C          64.6583   96.8492    9.8921 C.3     1  UNL1        0.0541
      8 C          65.8773   95.9995    9.6874 C.ar    1  UNL1        0.0839
      9 N          67.0526   96.3382    8.8191 N.ar    1  UNL1       -0.1509
     10 N          68.0367   95.2099    8.9102 N.ar    1  UNL1       -0.1307
     11 C          67.4696   94.1737    9.8348 C.ar    1  UNL1        0.1632
     12 N          67.9961   92.8490   10.3014 N.ar    1  UNL1       -0.3360
     13 C          67.1880   92.0122   11.2484 C.ar    1  UNL1        0.0735
     14 C          65.8534   92.5002   11.7287 C.ar    1  UNL1        0.0187
     15 C          65.3269   93.8250   11.2621 C.ar    1  UNL1        0.0058
     16 C          66.1351   94.6618   10.3152 C.ar    1  UNL1        0.0510
     17 H          68.8720   92.5287    9.9862 H       1  UNL1        0.1675
     18 C          66.6774   92.2696   14.6041 C.ar    1  UNL1        0.0584
     19 C          67.9143   91.6310   15.1628 C.ar    1  UNL1        0.0453
     20 C          68.8762   92.7231   15.5262 C.ar    1  UNL1        0.1798
     21 O          68.2337   94.0368   15.1921 O.2     1  UNL1       -0.4473
     22 C          66.8748   93.7565   14.6222 C.ar    1  UNL1        0.1812
     23 O          61.7970   89.3836   12.6412 O.3     1  UNL1       -0.4724
     24 C          61.1184   89.8297   11.3801 C.3     1  UNL1        0.2211
     25 C          60.7394   88.8221   10.3356 C.3     1  UNL1        0.0995
     26 N          60.4180   89.2719    8.9411 N.3     1  UNL1       -0.3190
     27 H          60.1836   88.4614    8.3679 H       1  UNL1        0.1189
     28 H          61.2273   89.7478    8.5423 H       1  UNL1        0.1189
     29 C          60.6819   87.3646   10.6854 C.3     1  UNL1        0.0472
     30 C          61.6151   86.3963   10.0207 C.2     1  UNL1       -0.0005
     31 C          61.9418   86.3497    8.5575 C.2     1  UNL1        0.0942
     32 N          62.9141   85.2293    8.3351 N.2     1  UNL1       -0.2482
     33 C          63.1883   84.5834    9.6609 C.2     1  UNL1        0.0631
     34 C          64.0651   83.4318   10.0541 C.3     1  UNL1        0.0717
     35 C          64.1393   83.0013   11.4891 C.2     1  UNL1       -0.0198
     36 C          63.3365   83.7226   12.5309 C.2     1  UNL1       -0.0042
     37 C          62.4596   84.8743   12.1376 C.2     1  UNL1        0.0006
     38 C          62.3854   85.3047   10.7026 C.2     1  UNL1        0.0114
@<TRIPOS>BOND
     1     7     8    1
     2     8     9   ar
     3     9    10   ar
     4    10    11   ar
     5    11    12   ar
     6    12    13   ar
     7    13    14   ar
     8    14     1    1
     9     1     2   ar
    10     2     3   ar
    11     3    23    1
    12    23    24    1
    13    24    25    1
    14    25    26    1
    15    25    29    1
    16    29    30    1
    17    30    31    2
    18    31    32    1
    19    32    33    2
    20    33    34    1
    21    34    35    1
    22    35    36    2
    23    36    37    1
    24    37    38    2
    25     3     4   ar
    26     4     5   ar
    27     5     6   ar
    28     6    18    1
    29    18    19   ar
    30    19    20   ar
    31    20    21   ar
    32    21    22   ar
    33    14    15   ar
    34    15    16   ar
    35    16     8   ar
    36    16    11    1
    37     6     1   ar
    38    22    18   ar
    39    38    30    1
    40    38    33    1
    41    12    17    1
    42    26    27    1
    43    26    28    1
@<TRIPOS>MOLECULE
*****
 38 43 0 0 0
SMALL
GASTEIGER

@<TRIPOS>ATOM
      1 C          65.2179   91.7577   12.7822 C.ar    1  UNL1        0.0222
      2 C          63.9372   91.0769   12.3997 C.ar    1  UNL1        0.0401
      3 C          63.1860   90.2673   13.4147 C.ar    1  UNL1        0.1577
      4 C          63.7154   90.1385   14.8122 C.ar    1  UNL1        0.1356
      5 N          64.9961   90.8194   15.1947 N.ar    1  UNL1       -0.2406
      6 C          65.7473   91.6290   14.1797 C.ar    1  UNL1        0.0847
      7 C          64.6522   96.8511    9.8618 C.3     1  UNL1        0.0541
      8 C          65.8633   96.0002    9.6185 C.ar    1  UNL1        0.0839
      9 N          66.9882   96.3159    8.6779 N.ar    1  UNL1       -0.1509
     10 N          67.9822   95.1950    8.7512 N.ar    1  UNL1       -0.1307
     11 C          67.4716   94.1864    9.7372 C.ar    1  UNL1        0.1632
     12 N          68.0300   92.8792   10.2162 N.ar    1  UNL1       -0.3360
     13 C          67.2787   92.0697   11.2311 C.ar    1  UNL1        0.0735
     14 C          65.9691   92.5673   11.7672 C.ar    1  UNL1        0.0187
     15 C          65.4108   93.8745   11.2882 C.ar    1  UNL1        0.0058
     16 C          66.1620   94.6841   10.2732 C.ar    1  UNL1        0.0510
     17 H          68.8895   92.5526    9.8644 H       1  UNL1        0.1675
     18 C          67.0280   92.3099   14.5622 C.ar    1  UNL1        0.0584
     19 C          67.1490   93.6198   15.2830 C.ar    1  UNL1        0.0453
     20 C          68.6083   93.9199   15.4574 C.ar    1  UNL1        0.1798
     21 O          69.3893   92.7954   14.8443 O.2     1  UNL1       -0.4473
     22 C          68.4126   91.8004   14.2911 C.ar    1  UNL1        0.1812
     23 O          61.9054   89.5864   13.0322 O.3     1  UNL1       -0.4724
     24 C          61.1208   90.0739   11.8503 C.3     1  UNL1        0.2211
     25 C          60.3056   89.1088   11.0416 C.3     1  UNL1        0.0995
     26 N          59.6190   87.9580   11.7157 N.3     1  UNL1       -0.3190
     27 H          59.1141   87.4087   11.0202 H       1  UNL1        0.1189
     28 H          58.9623   88.3136   12.4104 H       1  UNL1        0.1189
     29 C          60.1769   89.2945    9.5587 C.3     1  UNL1        0.0472
     30 C          60.0098   88.1013    8.6651 C.2     1  UNL1       -0.0005
     31 C          58.7988   87.7802    7.8402 C.2     1  UNL1        0.0942
     32 N          59.0650   86.5002    7.1049 N.2     1  UNL1       -0.2482
     33 C          60.4405   86.0302    7.4753 C.2     1  UNL1        0.0631
     34 C          61.2367   84.8291    7.0591 C.3     1  UNL1        0.0717
     35 C          62.6169   84.6174    7.6072 C.2     1  UNL1       -0.0198
     36 C          63.2008   85.6070    8.5715 C.2     1  UNL1       -0.0042
     37 C          62.4046   86.8082    8.9876 C.2     1  UNL1        0.0006
     38 C          61.0244   87.0197    8.4395 C.2     1  UNL1        0.0114
@<TRIPOS>BOND
     1     7     8    1
     2     8     9   ar
     3     9    10   ar
     4    10    11   ar
     5    11    12   ar
     6    12    13   ar
     7    13    14   ar
     8    14     1    1
     9     1     2   ar
    10     2     3   ar
    11     3    23    1
    12    23    24    1
    13    24    25    1
    14    25    26    1
    15    25    29    1
    16    29    30    1
    17    30    31    2
    18    31    32    1
    19    32    33    2
    20    33    34    1
    21    34    35    1
    22    35    36    2
    23    36    37    1
    24    37    38    2
    25     3     4   ar
    26     4     5   ar
    27     5     6   ar
    28     6    18    1
    29    18    19   ar
    30    19    20   ar
    31    20    21   ar
    32    21    22   ar
    33    14    15   ar
    34    15    16   ar
    35    16     8   ar
    36    16    11    1
    37     6     1   ar
    38    22    18   ar
    39    38    30    1
    40    38    33    1
    41    12    17    1
    42    26    27    1
    43    26    28    1
@<TRIPOS>MOLECULE
*****
 38 43 0 0 0
SMALL
GASTEIGER

@<TRIPOS>ATOM
      1 C          64.1504   90.8150   13.2527 C.ar    1  UNL1        0.0222
      2 C          63.3150   90.6298   12.0207 C.ar    1  UNL1        0.0401
      3 C          63.6151   91.4248   10.7846 C.ar    1  UNL1        0.1577
      4 C          64.7505   92.4051   10.7805 C.ar    1  UNL1        0.1356
      5 N          65.5859   92.5903   12.0126 N.ar    1  UNL1       -0.2406
      6 C          65.2858   91.7953   13.2486 C.ar    1  UNL1        0.0847
      7 C          64.2352   85.1980   15.0509 C.3     1  UNL1        0.0541
      8 C          63.8048   86.2663   16.0119 C.ar    1  UNL1        0.0839
      9 N          63.3778   86.0530   17.4339 N.ar    1  UNL1       -0.1509
     10 N          63.0350   87.3903   18.0205 N.ar    1  UNL1       -0.1307
     11 C          63.2503   88.4301   16.9611 C.ar    1  UNL1        0.1632
     12 N          63.0746   89.9198   16.9664 N.ar    1  UNL1       -0.3360
     13 C          63.3746   90.7147   15.7302 C.ar    1  UNL1        0.0735
     14 C          63.8504   90.0200   14.4889 C.ar    1  UNL1        0.0187
     15 C          64.0261   88.5304   14.4836 C.ar    1  UNL1        0.0058
     16 C          63.7261   87.7354   15.7197 C.ar    1  UNL1        0.0510
     17 H          62.7623   90.3757   17.7811 H       1  UNL1        0.1675
     18 C          66.1212   91.9805   14.4807 C.ar    1  UNL1        0.0584
     19 C          67.5131   91.4616   14.6884 C.ar    1  UNL1        0.0453
     20 C          67.9634   91.8775   16.0574 C.ar    1  UNL1        0.1798
     21 O          66.8497   92.6535   16.6959 O.2     1  UNL1       -0.4473
     22 C          65.7112   92.7171   15.7214 C.ar    1  UNL1        0.1812
     23 O          62.7797   91.2396    9.5526 O.3     1  UNL1       -0.4724
     24 C          61.9884   89.9791    9.3655 C.3     1  UNL1        0.2211
     25 C          60.7043   89.7815   10.1151 C.3     1  UNL1        0.0995
     26 N          59.9705   90.9657   10.6711 N.3     1  UNL1       -0.3190
     27 H          59.1251   90.6495   11.1462 H       1  UNL1        0.1189
     28 H          59.7173   91.5965    9.9105 H       1  UNL1        0.1189
     29 C          60.1540   88.3996   10.3087 C.3     1  UNL1        0.0472
     30 C          60.0134   87.4769    9.1344 C.2     1  UNL1       -0.0005
     31 C          58.7964   87.3288    8.2702 C.2     1  UNL1        0.0942
     32 N          59.0961   86.3007    7.2198 N.2     1  UNL1       -0.2482
     33 C          60.4983   85.8133    7.4349 C.2     1  UNL1        0.0631
     34 C          61.3321   84.8016    6.7062 C.3     1  UNL1        0.0717
     35 C          62.7330   84.5167    7.1608 C.2     1  UNL1       -0.0198
     36 C          63.2999   85.2436    8.3440 C.2     1  UNL1       -0.0042
     37 C          62.4660   86.2554    9.0727 C.2     1  UNL1        0.0006
     38 C          61.0653   86.5403    8.6182 C.2     1  UNL1        0.0114
@<TRIPOS>BOND
     1     7     8    1
     2     8     9   ar
     3     9    10   ar
     4    10    11   ar
     5    11    12   ar
     6    12    13   ar
     7    13    14   ar
     8    14     1    1
     9     1     2   ar
    10     2     3   ar
    11     3    23    1
    12    23    24    1
    13    24    25    1
    14    25    26    1
    15    25    29    1
    16    29    30    1
    17    30    31    2
    18    31    32    1
    19    32    33    2
    20    33    34    1
    21    34    35    1
    22    35    36    2
    23    36    37    1
    24    37    38    2
    25     3     4   ar
    26     4     5   ar
    27     5     6   ar
    28     6    18    1
    29    18    19   ar
    30    19    20   ar
    31    20    21   ar
    32    21    22   ar
    33    14    15   ar
    34    15    16   ar
    35    16     8   ar
    36    16    11    1
    37     6     1   ar
    38    22    18   ar
    39    38    30    1
    40    38    33    1
    41    12    17    1
    42    26    27    1
    43    26    28    1
@<TRIPOS>MOLECULE
*****
 38 43 0 0 0
SMALL
GASTEIGER

@<TRIPOS>ATOM
      1 C          63.3129   85.1162   13.8167 C.ar    1  UNL1        0.0222
      2 C          63.5726   86.4814   14.3812 C.ar    1  UNL1        0.0401
      3 C          63.6252   86.6811   15.8670 C.ar    1  UNL1        0.1577
      4 C          63.4182   85.5155   16.7881 C.ar    1  UNL1        0.1356
      5 N          63.1585   84.1503   16.2235 N.ar    1  UNL1       -0.2406
      6 C          63.1058   83.9506   14.7378 C.ar    1  UNL1        0.0847
      7 C          60.2691   87.1059    9.1725 C.3     1  UNL1        0.0541
      8 C          61.3500   86.0887    8.9561 C.ar    1  UNL1        0.0839
      9 N          61.7559   85.5005    7.6373 N.ar    1  UNL1       -0.1509
     10 N          62.8715   84.5293    7.8866 N.ar    1  UNL1       -0.1307
     11 C          63.1550   84.5172    9.3595 C.ar    1  UNL1        0.1632
     12 N          64.1480   83.7531   10.1842 N.ar    1  UNL1       -0.3360
     13 C          64.2006   83.9528   11.6699 C.ar    1  UNL1        0.0735
     14 C          63.2602   84.9166   12.3309 C.ar    1  UNL1        0.0187
     15 C          62.2673   85.6806   11.5062 C.ar    1  UNL1        0.0058
     16 C          62.2147   85.4809   10.0205 C.ar    1  UNL1        0.0510
     17 H          64.7652   83.1206    9.7504 H       1  UNL1        0.1675
     18 C          62.8461   82.5854   14.1732 C.ar    1  UNL1        0.0584
     19 C          61.5144   81.8985   14.1042 C.ar    1  UNL1        0.0453
     20 C          61.7178   80.5560   13.4668 C.ar    1  UNL1        0.1798
     21 O          63.1753   80.4131   13.1419 O.2     1  UNL1       -0.4473
     22 C          63.8726   81.6674   13.5784 C.ar    1  UNL1        0.1812
     23 O          63.8849   88.0463   16.4315 O.3     1  UNL1       -0.4724
     24 C          63.1880   89.2421   15.8532 C.3     1  UNL1        0.2211
     25 C          63.9085   90.5537   15.7518 C.3     1  UNL1        0.0995
     26 N          63.4563   91.7235   16.5748 N.3     1  UNL1       -0.3190
     27 H          64.0546   92.5267   16.3816 H       1  UNL1        0.1189
     28 H          63.5155   91.4857   17.5649 H       1  UNL1        0.1189
     29 C          65.0813   90.6958   14.8274 C.3     1  UNL1        0.0472
     30 C          64.8903   91.2756   13.4572 C.2     1  UNL1       -0.0005
     31 C          65.5946   92.4783   12.9027 C.2     1  UNL1        0.0942
     32 N          65.1011   92.7004   11.5037 N.2     1  UNL1       -0.2482
     33 C          64.0918   91.6349   11.1936 C.2     1  UNL1        0.0631
     34 C          63.2745   91.3529    9.9679 C.3     1  UNL1        0.0717
     35 C          62.3270   90.1901    9.9493 C.2     1  UNL1       -0.0198
     36 C          62.1967   89.3096   11.1566 C.2     1  UNL1       -0.0042
     37 C          63.0140   89.5917   12.3824 C.2     1  UNL1        0.0006
     38 C          63.9615   90.7544   12.4009 C.2     1  UNL1        0.0114
@<TRIPOS>BOND
     1     7     8    1
     2     8     9   ar
     3     9    10   ar
     4    10    11   ar
     5    11    12   ar
     6    12    13   ar
     7    13    14   ar
     8    14     1    1
     9     1     2   ar
    10     2     3   ar
    11     3    23    1
    12    23    24    1
    13    24    25    1
    14    25    26    1
    15    25    29    1
    16    29    30    1
    17    30    31    2
    18    31    32    1
    19    32    33    2
    20    33    34    1
    21    34    35    1
    22    35    36    2
    23    36    37    1
    24    37    38    2
    25     3     4   ar
    26     4     5   ar
    27     5     6   ar
    28     6    18    1
    29    18    19   ar
    30    19    20   ar
    31    20    21   ar
    32    21    22   ar
    33    14    15   ar
    34    15    16   ar
    35    16     8   ar
    36    16    11    1
    37     6     1   ar
    38    22    18   ar
    39    38    30    1
    40    38    33    1
    41    12    17    1
    42    26    27    1
    43    26    28    1
@<TRIPOS>MOLECULE
*****
 38 43 0 0 0
SMALL
GASTEIGER

@<TRIPOS>ATOM
      1 C          62.3203   86.9846   10.5918 C.ar    1  UNL1        0.0222
      2 C          62.6486   88.0297   11.6165 C.ar    1  UNL1        0.0401
      3 C          62.2582   89.4589   11.3818 C.ar    1  UNL1        0.1577
      4 C          61.5395   89.8430   10.1225 C.ar    1  UNL1        0.1356
      5 N          61.2112   88.7978    9.0978 N.ar    1  UNL1       -0.2406
      6 C          61.6016   87.3686    9.3325 C.ar    1  UNL1        0.0847
      7 C          62.1331   82.9822   14.9205 C.3     1  UNL1        0.0541
      8 C          62.7221   82.5982   13.5955 C.ar    1  UNL1        0.0839
      9 N          63.2898   81.2565   13.2386 N.ar    1  UNL1       -0.1509
     10 N          63.7653   81.3176   11.8173 N.ar    1  UNL1       -0.1307
     11 C          63.4914   82.6971   11.2957 C.ar    1  UNL1        0.1632
     12 N          63.7458   83.3348    9.9621 N.ar    1  UNL1       -0.3360
     13 C          63.3555   84.7639    9.7275 C.ar    1  UNL1        0.0735
     14 C          62.7107   85.5554   10.8265 C.ar    1  UNL1        0.0187
     15 C          62.4562   84.9177   12.1601 C.ar    1  UNL1        0.0058
     16 C          62.8466   83.4886   12.3947 C.ar    1  UNL1        0.0510
     17 H          64.1691   82.8153    9.2408 H       1  UNL1        0.1675
     18 C          61.2733   86.3235    8.3078 C.ar    1  UNL1        0.0584
     19 C          62.2636   85.4888    7.5512 C.ar    1  UNL1        0.0453
     20 C          61.4994   84.5790    6.6356 C.ar    1  UNL1        0.1798
     21 O          60.0367   84.8514    6.8264 O.2     1  UNL1       -0.4473
     22 C          59.8970   85.9295    7.8599 C.ar    1  UNL1        0.1812
     23 O          62.5865   90.5040   12.4065 O.3     1  UNL1       -0.4724
     24 C          63.5664   91.5919   12.0808 C.3     1  UNL1        0.2211
     25 C          64.7787   91.7916   12.9414 C.3     1  UNL1        0.0995
     26 N          65.4984   93.1077   12.9294 N.3     1  UNL1       -0.3190
     27 H          66.2925   93.0667   13.5682 H       1  UNL1        0.1189
     28 H          64.8609   93.8465   13.2264 H       1  UNL1        0.1189
     29 C          65.2713   90.6754   13.8139 C.3     1  UNL1        0.0472
     30 C          64.4513   90.2212   14.9850 C.2     1  UNL1       -0.0005
     31 C          63.7935   91.1100   15.9985 C.2     1  UNL1        0.0942
     32 N          63.0810   90.2366   16.9881 N.2     1  UNL1       -0.2482
     33 C          63.2984   88.8078   16.5862 C.2     1  UNL1        0.0631
     34 C          62.8346   87.5144   17.1876 C.3     1  UNL1        0.0717
     35 C          63.2177   86.2112   16.5510 C.2     1  UNL1       -0.0198
     36 C          64.0647   86.2017   15.3130 C.2     1  UNL1       -0.0042
     37 C          64.5285   87.4953   14.7116 C.2     1  UNL1        0.0006
     38 C          64.1453   88.7983   15.3483 C.2     1  UNL1        0.0114
@<TRIPOS>BOND
     1     7     8    1
     2     8     9   ar
     3     9    10   ar
     4    10    11   ar
     5    11    12   ar
     6    12    13   ar
     7    13    14   ar
     8    14     1    1
     9     1     2   ar
    10     2     3   ar
    11     3    23    1
    12    23    24    1
    13    24    25    1
    14    25    26    1
    15    25    29    1
    16    29    30    1
    17    30    31    2
    18    31    32    1
    19    32    33    2
    20    33    34    1
    21    34    35    1
    22    35    36    2
    23    36    37    1
    24    37    38    2
    25     3     4   ar
    26     4     5   ar
    27     5     6   ar
    28     6    18    1
    29    18    19   ar
    30    19    20   ar
    31    20    21   ar
    32    21    22   ar
    33    14    15   ar
    34    15    16   ar
    35    16     8   ar
    36    16    11    1
    37     6     1   ar
    38    22    18   ar
    39    38    30    1
    40    38    33    1
    41    12    17    1
    42    26    27    1
    43    26    28    1
@<TRIPOS>MOLECULE
*****
 38 43 0 0 0
SMALL
GASTEIGER

@<TRIPOS>ATOM
      1 C          62.7997   87.6086   12.1634 C.ar    1  UNL1        0.0222
      2 C          63.1328   89.0442   12.4431 C.ar    1  UNL1        0.0401
      3 C          64.0446   89.3945   13.5815 C.ar    1  UNL1        0.1577
      4 C          64.6233   88.3093   14.4402 C.ar    1  UNL1        0.1356
      5 N          64.2901   86.8737   14.1605 N.ar    1  UNL1       -0.2406
      6 C          63.3783   86.5234   13.0222 C.ar    1  UNL1        0.0847
      7 C          63.0001   84.6652    7.0558 C.3     1  UNL1        0.0541
      8 C          61.7139   85.3129    7.4757 C.ar    1  UNL1        0.0839
      9 N          60.4250   85.2925    6.7088 N.ar    1  UNL1       -0.1509
     10 N          59.4054   86.0618    7.4953 N.ar    1  UNL1       -0.1307
     11 C          60.0642   86.5576    8.7484 C.ar    1  UNL1        0.1632
     12 N          59.5493   87.3708    9.8988 N.ar    1  UNL1       -0.3360
     13 C          60.4611   87.7211   11.0372 C.ar    1  UNL1        0.0735
     14 C          61.8878   87.2583   11.0250 C.ar    1  UNL1        0.0187
     15 C          62.4028   86.4451    9.8746 C.ar    1  UNL1        0.0058
     16 C          61.4910   86.0948    8.7363 C.ar    1  UNL1        0.0510
     17 H          58.6128   87.6745    9.9068 H       1  UNL1        0.1675
     18 C          63.0451   85.0878   12.7425 C.ar    1  UNL1        0.0584
     19 C          63.4492   84.3099   11.5253 C.ar    1  UNL1        0.0453
     20 C          62.9032   82.9195   11.6615 C.ar    1  UNL1        0.1798
     21 O          62.1617   82.8380   12.9629 O.2     1  UNL1       -0.4473
     22 C          62.2494   84.1781   13.6310 C.ar    1  UNL1        0.1812
     23 O          64.3777   90.8301   13.8611 O.3     1  UNL1       -0.4724
     24 C          65.7413   91.1991   14.3654 C.3     1  UNL1        0.2211
     25 C          66.5127   92.3020   13.7034 C.3     1  UNL1        0.0995
     26 N          67.9279   92.5801   14.1161 N.3     1  UNL1       -0.3190
     27 H          68.2959   93.3567   13.5667 H       1  UNL1        0.1189
     28 H          68.4982   91.7498   13.9557 H       1  UNL1        0.1189
     29 C          65.8691   93.1270   12.6286 C.3     1  UNL1        0.0472
     30 C          66.5595   93.3108   11.3095 C.2     1  UNL1       -0.0005
     31 C          67.4676   92.3197   10.6440 C.2     1  UNL1        0.0942
     32 N          67.9323   92.9144    9.3477 N.2     1  UNL1       -0.2482
     33 C          67.3112   94.2731    9.2120 C.2     1  UNL1        0.0631
     34 C          67.4087   95.3187    8.1411 C.3     1  UNL1        0.0717
     35 C          66.6577   96.6095    8.2826 C.2     1  UNL1       -0.0198
     36 C          65.8093   96.8545    9.4951 C.2     1  UNL1       -0.0042
     37 C          65.7118   95.8088   10.5660 C.2     1  UNL1        0.0006
     38 C          66.4628   94.5180   10.4245 C.2     1  UNL1        0.0114
@<TRIPOS>BOND
     1     7     8    1
     2     8     9   ar
     3     9    10   ar
     4    10    11   ar
     5    11    12   ar
     6    12    13   ar
     7    13    14   ar
     8    14     1    1
     9     1     2   ar
    10     2     3   ar
    11     3    23    1
    12    23    24    1
    13    24    25    1
    14    25    26    1
    15    25    29    1
    16    29    30    1
    17    30    31    2
    18    31    32    1
    19    32    33    2
    20    33    34    1
    21    34    35    1
    22    35    36    2
    23    36    37    1
    24    37    38    2
    25     3     4   ar
    26     4     5   ar
    27     5     6   ar
    28     6    18    1
    29    18    19   ar
    30    19    20   ar
    31    20    21   ar
    32    21    22   ar
    33    14    15   ar
    34    15    16   ar
    35    16     8   ar
    36    16    11    1
    37     6     1   ar
    38    22    18   ar
    39    38    30    1
    40    38    33    1
    41    12    17    1
    42    26    27    1
    43    26    28    1
@<TRIPOS>MOLECULE
*****
 38 43 0 0 0
SMALL
GASTEIGER

@<TRIPOS>ATOM
      1 C          63.2818   85.0423   13.8110 C.ar    1  UNL1        0.0222
      2 C          63.5259   86.3968   14.4073 C.ar    1  UNL1        0.0401
      3 C          63.5739   86.5628   15.8974 C.ar    1  UNL1        0.1577
      4 C          63.3778   85.3742   16.7911 C.ar    1  UNL1        0.1356
      5 N          63.1336   84.0196   16.1947 N.ar    1  UNL1       -0.2406
      6 C          63.0856   83.8537   14.7047 C.ar    1  UNL1        0.0847
      7 C          60.3195   87.2091    9.1935 C.3     1  UNL1        0.0541
      8 C          61.3757   86.1696    8.9612 C.ar    1  UNL1        0.0839
      9 N          61.7752   85.6001    7.6323 N.ar    1  UNL1       -0.1509
     10 N          62.8642   84.5957    7.8670 N.ar    1  UNL1       -0.1307
     11 C          63.1378   84.5444    9.3410 C.ar    1  UNL1        0.1632
     12 N          64.1058   83.7376   10.1546 N.ar    1  UNL1       -0.3360
     13 C          64.1537   83.9036   11.6446 C.ar    1  UNL1        0.0735
     14 C          63.2338   84.8764   12.3209 C.ar    1  UNL1        0.0187
     15 C          62.2658   85.6831   11.5072 C.ar    1  UNL1        0.0058
     16 C          62.2178   85.5171   10.0173 C.ar    1  UNL1        0.0510
     17 H          64.7096   83.0992    9.7108 H       1  UNL1        0.1675
     18 C          62.8414   82.4991   14.1083 C.ar    1  UNL1        0.0584
     19 C          61.5203   81.7926   14.0364 C.ar    1  UNL1        0.0453
     20 C          61.7379   80.4701   13.3628 C.ar    1  UNL1        0.1798
     21 O          63.1937   80.3593   13.0185 O.2     1  UNL1       -0.4473
     22 C          63.8757   81.6133   13.4792 C.ar    1  UNL1        0.1812
     23 O          63.8181   87.9173   16.4936 O.3     1  UNL1       -0.4724
     24 C          63.0839   89.1134   15.9641 C.3     1  UNL1        0.2211
     25 C          63.8253   90.3885   15.6916 C.3     1  UNL1        0.0995
     26 N          63.4407   91.6479   16.4099 N.3     1  UNL1       -0.3190
     27 H          64.0448   92.4112   16.1051 H       1  UNL1        0.1189
     28 H          63.5462   91.5116   17.4153 H       1  UNL1        0.1189
     29 C          64.9513   90.4042   14.7007 C.3     1  UNL1        0.0472
     30 C          65.5877   91.7050   14.3092 C.2     1  UNL1       -0.0005
     31 C          66.4108   92.5872   15.2003 C.2     1  UNL1        0.0942
     32 N          66.8445   93.7793   14.3997 N.2     1  UNL1       -0.2482
     33 C          66.2894   93.6337   13.0138 C.2     1  UNL1        0.0631
     34 C          66.3909   94.5029   11.7955 C.3     1  UNL1        0.0717
     35 C          65.7157   94.0901   10.5213 C.2     1  UNL1       -0.0198
     36 C          64.9389   92.8081   10.4653 C.2     1  UNL1       -0.0042
     37 C          64.8374   91.9389   11.6836 C.2     1  UNL1        0.0006
     38 C          65.5127   92.3517   12.9578 C.2     1  UNL1        0.0114
@<TRIPOS>BOND
     1     7     8    1
     2     8     9   ar
     3     9    10   ar
     4    10    11   ar
     5    11    12   ar
     6    12    13   ar
     7    13    14   ar
     8    14     1    1
     9     1     2   ar
    10     2     3   ar
    11     3    23    1
    12    23    24    1
    13    24    25    1
    14    25    26    1
    15    25    29    1
    16    29    30    1
    17    30    31    2
    18    31    32    1
    19    32    33    2
    20    33    34    1
    21    34    35    1
    22    35    36    2
    23    36    37    1
    24    37    38    2
    25     3     4   ar
    26     4     5   ar
    27     5     6   ar
    28     6    18    1
    29    18    19   ar
    30    19    20   ar
    31    20    21   ar
    32    21    22   ar
    33    14    15   ar
    34    15    16   ar
    35    16     8   ar
    36    16    11    1
    37     6     1   ar
    38    22    18   ar
    39    38    30    1
    40    38    33    1
    41    12    17    1
    42    26    27    1
    43    26    28    1
@<TRIPOS>MOLECULE
*****
 38 43 0 0 0
SMALL
GASTEIGER

@<TRIPOS>ATOM
      1 C          62.3314   87.0180   10.8485 C.ar    1  UNL1        0.0222
      2 C          62.7199   87.9770   11.9345 C.ar    1  UNL1        0.0401
      3 C          62.3614   89.4288   11.8168 C.ar    1  UNL1        0.1577
      4 C          61.6143   89.9215   10.6130 C.ar    1  UNL1        0.1356
      5 N          61.2258   88.9625    9.5269 N.ar    1  UNL1       -0.2406
      6 C          61.5844   87.5108    9.6447 C.ar    1  UNL1        0.0847
      7 C          61.9854   82.6645   14.8132 C.3     1  UNL1        0.0541
      8 C          62.5922   82.3833   13.4705 C.ar    1  UNL1        0.0839
      9 N          63.1411   81.0656   13.0096 N.ar    1  UNL1       -0.1509
     10 N          63.6447   81.2384   11.6073 N.ar    1  UNL1       -0.1307
     11 C          63.4071   82.6628   11.2015 C.ar    1  UNL1        0.1632
     12 N          63.6990   83.4069    9.9323 N.ar    1  UNL1       -0.3360
     13 C          63.3405   84.8586    9.8146 C.ar    1  UNL1        0.0735
     14 C          62.6900   85.5662   10.9662 C.ar    1  UNL1        0.0187
     15 C          62.3981   84.8221   12.2354 C.ar    1  UNL1        0.0058
     16 C          62.7566   83.3704   12.3531 C.ar    1  UNL1        0.0510
     17 H          64.1260   82.9424    9.1765 H       1  UNL1        0.1675
     18 C          61.1959   86.5518    8.5587 C.ar    1  UNL1        0.0584
     19 C          62.1378   85.7300    7.7295 C.ar    1  UNL1        0.0453
     20 C          61.3213   84.9166    6.7696 C.ar    1  UNL1        0.1798
     21 O          59.8747   85.2356    7.0054 O.2     1  UNL1       -0.4473
     22 C          59.7972   86.2462    8.1111 C.ar    1  UNL1        0.1812
     23 O          62.7499   90.3877   12.9028 O.3     1  UNL1       -0.4724
     24 C          63.0246   89.8811   14.2877 C.3     1  UNL1        0.2211
     25 C          63.9458   90.6412   15.1953 C.3     1  UNL1        0.0995
     26 N          63.4137   91.2681   16.4499 N.3     1  UNL1       -0.3190
     27 H          64.1720   91.7408   16.9418 H       1  UNL1        0.1189
     28 H          63.0180   90.5445   17.0501 H       1  UNL1        0.1189
     29 C          65.3990   90.7743   14.8484 C.3     1  UNL1        0.0472
     30 C          65.9280   92.0750   14.3205 C.2     1  UNL1       -0.0005
     31 C          66.7306   93.0791   15.0935 C.2     1  UNL1        0.0942
     32 N          67.0458   94.2245   14.1778 N.2     1  UNL1       -0.2482
     33 C          66.4380   93.9283   12.8388 C.2     1  UNL1        0.0631
     34 C          66.4244   94.6966   11.5506 C.3     1  UNL1        0.0717
     35 C          65.7198   94.1365   10.3506 C.2     1  UNL1       -0.0198
     36 C          65.0290   92.8080   10.4389 C.2     1  UNL1       -0.0042
     37 C          65.0426   92.0397   11.7271 C.2     1  UNL1        0.0006
     38 C          65.7471   92.5998   12.9270 C.2     1  UNL1        0.0114
@<TRIPOS>BOND
     1     7     8    1
     2     8     9   ar
     3     9    10   ar
     4    10    11   ar
     5    11    12   ar
     6    12    13   ar
     7    13    14   ar
     8    14     1    1
     9     1     2   ar
    10     2     3   ar
    11     3    23    1
    12    23    24    1
    13    24    25    1
    14    25    26    1
    15    25    29    1
    16    29    30    1
    17    30    31    2
    18    31    32    1
    19    32    33    2
    20    33    34    1
    21    34    35    1
    22    35    36    2
    23    36    37    1
    24    37    38    2
    25     3     4   ar
    26     4     5   ar
    27     5     6   ar
    28     6    18    1
    29    18    19   ar
    30    19    20   ar
    31    20    21   ar
    32    21    22   ar
    33    14    15   ar
    34    15    16   ar
    35    16     8   ar
    36    16    11    1
    37     6     1   ar
    38    22    18   ar
    39    38    30    1
    40    38    33    1
    41    12    17    1
    42    26    27    1
    43    26    28    1
@<TRIPOS>MOLECULE
*****
 38 43 0 0 0
SMALL
GASTEIGER

@<TRIPOS>ATOM
      1 C          62.4599   86.3652   10.6954 C.ar    1  UNL1        0.0222
      2 C          62.7277   87.2717   11.8601 C.ar    1  UNL1        0.0401
      3 C          62.3991   88.7322   11.7648 C.ar    1  UNL1        0.1577
      4 C          61.8026   89.2861   10.5049 C.ar    1  UNL1        0.1356
      5 N          61.5348   88.3795    9.3402 N.ar    1  UNL1       -0.2406
      6 C          61.8634   86.9191    9.4355 C.ar    1  UNL1        0.0847
      7 C          61.2272   81.7514   14.1573 C.3     1  UNL1        0.0541
      8 C          62.1295   81.5570   12.9749 C.ar    1  UNL1        0.0839
      9 N          62.7765   80.2682   12.5620 N.ar    1  UNL1       -0.1509
     10 N          63.5901   80.5321   11.3297 N.ar    1  UNL1       -0.1307
     11 C          63.4459   81.9838   10.9811 C.ar    1  UNL1        0.1632
     12 N          64.0199   82.8108    9.8691 N.ar    1  UNL1       -0.3360
     13 C          63.6912   84.2712    9.7739 C.ar    1  UNL1        0.0735
     14 C          62.7885   84.9047   10.7907 C.ar    1  UNL1        0.0187
     15 C          62.2145   84.0777   11.9027 C.ar    1  UNL1        0.0058
     16 C          62.5432   82.6173   11.9978 C.ar    1  UNL1        0.0510
     17 H          64.6124   82.3950    9.2017 H       1  UNL1        0.1675
     18 C          61.5956   86.0125    8.2708 C.ar    1  UNL1        0.0584
     19 C          62.6292   85.2790    7.4685 C.ar    1  UNL1        0.0453
     20 C          61.9196   84.4934    6.4058 C.ar    1  UNL1        0.1798
     21 O          60.4473   84.7414    6.5513 O.2     1  UNL1       -0.4473
     22 C          60.2472   85.6802    7.7040 C.ar    1  UNL1        0.1812
     23 O          62.6669   89.6387   12.9295 O.3     1  UNL1       -0.4724
     24 C          63.5466   89.1764   14.0530 C.3     1  UNL1        0.2211
     25 C          63.5336   89.9047   15.3642 C.3     1  UNL1        0.0995
     26 N          63.5386   91.4046   15.3891 N.3     1  UNL1       -0.3190
     27 H          63.5283   91.7286   16.3562 H       1  UNL1        0.1189
     28 H          62.7126   91.7554   14.9042 H       1  UNL1        0.1189
     29 C          63.5157   89.1334   16.6505 C.3     1  UNL1        0.0472
     30 C          63.0923   87.6943   16.6563 C.2     1  UNL1       -0.0005
     31 C          61.9336   87.1192   17.4156 C.2     1  UNL1        0.0942
     32 N          61.8785   85.6472   17.1323 N.2     1  UNL1       -0.2482
     33 C          63.0031   85.3126   16.1978 C.2     1  UNL1        0.0631
     34 C          63.4410   84.0194   15.5768 C.3     1  UNL1        0.0717
     35 C          64.6292   83.9912   14.6615 C.2     1  UNL1       -0.0198
     36 C          65.3793   85.2564   14.3674 C.2     1  UNL1       -0.0042
     37 C          64.9414   86.5497   14.9884 C.2     1  UNL1        0.0006
     38 C          63.7533   86.5778   15.9036 C.2     1  UNL1        0.0114
@<TRIPOS>BOND
     1     7     8    1
     2     8     9   ar
     3     9    10   ar
     4    10    11   ar
     5    11    12   ar
     6    12    13   ar
     7    13    14   ar
     8    14     1    1
     9     1     2   ar
    10     2     3   ar
    11     3    23    1
    12    23    24    1
    13    24    25    1
    14    25    26    1
    15    25    29    1
    16    29    30    1
    17    30    31    2
    18    31    32    1
    19    32    33    2
    20    33    34    1
    21    34    35    1
    22    35    36    2
    23    36    37    1
    24    37    38    2
    25     3     4   ar
    26     4     5   ar
    27     5     6   ar
    28     6    18    1
    29    18    19   ar
    30    19    20   ar
    31    20    21   ar
    32    21    22   ar
    33    14    15   ar
    34    15    16   ar
    35    16     8   ar
    36    16    11    1
    37     6     1   ar
    38    22    18   ar
    39    38    30    1
    40    38    33    1
    41    12    17    1
    42    26    27    1
    43    26    28    1
