@<TRIPOS>MOLECULE
*****
 35 38 0 0 0
SMALL
GASTEIGER

@<TRIPOS>ATOM
      1 C          63.7541   90.1449   13.4513 C.ar    1  UNL1        0.1042
      2 C          64.6494   91.3466   13.3861 C.ar    1  UNL1        0.0335
      3 C          64.8640   92.0520   12.0798 C.ar    1  UNL1        0.1261
      4 C          64.1832   91.5558   10.8388 C.ar    1  UNL1        0.0234
      5 C          63.2879   90.3541   10.9040 C.ar    1  UNL1        0.0396
      6 C          63.0734   89.6486   12.2103 C.ar    1  UNL1        0.1549
      7 S          65.7593   93.2538   12.0147 S.O2    1  UNL1        0.0751
      8 O          65.8683   93.0919   10.5275 O.2     1  UNL1       -0.1499
      9 O          65.6503   93.4157   13.5019 O.2     1  UNL1       -0.1499
     10 N          66.6546   94.4555   11.9495 N.pl3   1  UNL1       -0.1925
     11 H          67.1697   94.7292   12.7426 H       1  UNL1        0.1758
     12 C          66.7652   95.2402   10.6758 C.ar    1  UNL1        0.1977
     13 N          67.8033   95.0492    9.6100 N.ar    1  UNL1       -0.1997
     14 C          67.5368   96.0446    8.5198 C.ar    1  UNL1        0.2082
     15 N          66.3341   96.8507    8.9120 N.ar    1  UNL1       -0.1840
     16 S          65.8573   96.3535   10.2445 S.2     1  UNL1        0.0508
     17 N          63.3250   88.7340   16.0638 N.1     1  UNL1       -0.1907
     18 C          63.5395   89.4395   14.7576 C.1     1  UNL1        0.1035
     19 O          62.1780   88.4469   12.2754 O.3     1  UNL1       -0.4528
     20 C          61.9685   87.6006   11.0548 C.ar    1  UNL1        0.1453
     21 C          61.4080   88.2124    9.8052 C.ar    1  UNL1        0.0374
     22 C          61.1985   87.3660    8.5845 C.ar    1  UNL1        0.0070
     23 C          61.5496   85.9080    8.6136 C.ar    1  UNL1        0.0716
     24 C          62.1101   85.2962    9.8632 C.ar    1  UNL1        0.0069
     25 C          62.3196   86.1425   11.0838 C.ar    1  UNL1        0.0361
     26 C          62.8801   85.5307   12.3334 C.ar    1  UNL1        0.0255
     27 C          63.7902   86.3310   13.2173 C.ar    1  UNL1        0.0242
     28 C          64.3507   85.7193   14.4669 C.ar    1  UNL1        0.1222
     29 N          64.0011   84.3072   14.8327 N.ar    1  UNL1       -0.1464
     30 N          63.0909   83.5069   13.9489 N.ar    1  UNL1       -0.1464
     31 C          62.5304   84.1186   12.6992 C.ar    1  UNL1        0.1222
     32 C          61.3401   85.0617    7.3930 C.3     1  UNL1        0.4186
     33 F          61.1306   84.2154    6.1723 F       1  UNL1       -0.1659
     34 F          62.7841   84.6573    7.4256 F       1  UNL1       -0.1659
     35 F          59.8961   85.4662    7.3604 F       1  UNL1       -0.1659
@<TRIPOS>BOND
     1    17    18    3
     2    18     1    1
     3     1     2   ar
     4     2     3   ar
     5     3     7    1
     6     7     8    2
     7     7     9    2
     8     7    10    1
     9    10    12    1
    10    12    13   ar
    11    13    14   ar
    12    14    15   ar
    13    15    16   ar
    14     3     4   ar
    15     4     5   ar
    16     5     6   ar
    17     6    19    1
    18    19    20    1
    19    20    21   ar
    20    21    22   ar
    21    22    23   ar
    22    23    32    1
    23    32    33    1
    24    32    34    1
    25    32    35    1
    26    23    24   ar
    27    24    25   ar
    28    25    26    1
    29    26    27   ar
    30    27    28   ar
    31    28    29   ar
    32    29    30   ar
    33    30    31   ar
    34     6     1   ar
    35    25    20   ar
    36    31    26   ar
    37    16    12   ar
    38    10    11    1
@<TRIPOS>MOLECULE
*****
 35 38 0 0 0
SMALL
GASTEIGER

@<TRIPOS>ATOM
      1 C          61.7348   87.3214   10.4898 C.ar    1  UNL1        0.1042
      2 C          60.9202   87.4769    9.2399 C.ar    1  UNL1        0.0335
      3 C          60.3540   88.8173    8.8756 C.ar    1  UNL1        0.1261
      4 C          60.6023   90.0022    9.7612 C.ar    1  UNL1        0.0234
      5 C          61.4169   89.8467   11.0111 C.ar    1  UNL1        0.0396
      6 C          61.9832   88.5063   11.3754 C.ar    1  UNL1        0.1549
      7 S          59.5393   88.9727    7.6257 S.O2    1  UNL1        0.0751
      8 O          59.6207   87.4938    7.3888 O.2     1  UNL1       -0.1499
      9 O          59.4580   90.4517    7.8626 O.2     1  UNL1       -0.1499
     10 N          58.7247   89.1281    6.3758 N.pl3   1  UNL1       -0.1925
     11 H          58.1187   88.4067    6.0904 H       1  UNL1        0.1758
     12 C          58.8335   90.3828    5.5608 C.ar    1  UNL1        0.1977
     13 N          60.1027   90.9854    5.0354 N.ar    1  UNL1       -0.1997
     14 C          59.7458   92.2301    4.2780 C.ar    1  UNL1        0.2082
     15 N          58.2561   92.3966    4.3354 N.ar    1  UNL1       -0.1840
     16 S          57.6923   91.2548    5.1282 S.2     1  UNL1        0.0508
     17 N          62.8673   84.6406   11.2184 N.1     1  UNL1       -0.1907
     18 C          62.3010   85.9810   10.8541 C.1     1  UNL1        0.1035
     19 O          62.7978   88.3508   12.6253 O.3     1  UNL1       -0.4528
     20 C          63.6769   89.4730   13.0920 C.ar    1  UNL1        0.1453
     21 C          63.9936   90.6116   12.1683 C.ar    1  UNL1        0.0374
     22 C          64.8727   91.7339   12.6351 C.ar    1  UNL1        0.0070
     23 C          65.4350   91.7175   14.0256 C.ar    1  UNL1        0.0716
     24 C          65.1183   90.5789   14.9493 C.ar    1  UNL1        0.0069
     25 C          64.2392   89.4567   14.4826 C.ar    1  UNL1        0.0361
     26 C          63.9225   88.3181   15.4063 C.ar    1  UNL1        0.0255
     27 C          64.3576   86.9258   15.0572 C.ar    1  UNL1        0.0242
     28 C          64.0408   85.7872   15.9809 C.ar    1  UNL1        0.1222
     29 N          63.2890   86.0410   17.2538 N.ar    1  UNL1       -0.1464
     30 N          62.8539   87.4334   17.6031 N.ar    1  UNL1       -0.1464
     31 C          63.1707   88.5720   16.6793 C.ar    1  UNL1        0.1222
     32 C          66.3140   92.8397   14.4923 C.3     1  UNL1        0.4186
     33 F          67.1931   93.9620   14.9591 F       1  UNL1       -0.1659
     34 F          65.9795   93.6169   13.2537 F       1  UNL1       -0.1659
     35 F          66.6486   92.0626   15.7308 F       1  UNL1       -0.1659
@<TRIPOS>BOND
     1    17    18    3
     2    18     1    1
     3     1     2   ar
     4     2     3   ar
     5     3     7    1
     6     7     8    2
     7     7     9    2
     8     7    10    1
     9    10    12    1
    10    12    13   ar
    11    13    14   ar
    12    14    15   ar
    13    15    16   ar
    14     3     4   ar
    15     4     5   ar
    16     5     6   ar
    17     6    19    1
    18    19    20    1
    19    20    21   ar
    20    21    22   ar
    21    22    23   ar
    22    23    32    1
    23    32    33    1
    24    32    34    1
    25    32    35    1
    26    23    24   ar
    27    24    25   ar
    28    25    26    1
    29    26    27   ar
    30    27    28   ar
    31    28    29   ar
    32    29    30   ar
    33    30    31   ar
    34     6     1   ar
    35    25    20   ar
    36    31    26   ar
    37    16    12   ar
    38    10    11    1
@<TRIPOS>MOLECULE
*****
 35 38 0 0 0
SMALL
GASTEIGER

@<TRIPOS>ATOM
      1 C          62.0424   88.0125   10.7681 C.ar    1  UNL1        0.1042
      2 C          61.1217   88.6454    9.7673 C.ar    1  UNL1        0.0335
      3 C          60.3849   87.7897    8.7799 C.ar    1  UNL1        0.1261
      4 C          60.5689   86.3011    8.7933 C.ar    1  UNL1        0.0234
      5 C          61.4897   85.6683    9.7941 C.ar    1  UNL1        0.0396
      6 C          62.2264   86.5240   10.7815 C.ar    1  UNL1        0.1549
      7 S          59.4641   88.4227    7.7791 S.O2    1  UNL1        0.0751
      8 O          59.1728   87.0728    7.1935 O.2     1  UNL1       -0.1499
      9 O          59.7555   89.7725    8.3647 O.2     1  UNL1       -0.1499
     10 N          58.5434   89.0555    6.7783 N.pl3   1  UNL1       -0.1925
     11 H          57.6135   88.7423    6.6979 H       1  UNL1        0.1758
     12 C          59.0393   90.1658    5.8999 C.ar    1  UNL1        0.1977
     13 N          60.4522   90.3569    5.4337 N.ar    1  UNL1       -0.1997
     14 C          60.4956   91.5890    4.5792 C.ar    1  UNL1        0.2082
     15 N          59.1096   92.1594    4.5175 N.ar    1  UNL1       -0.1840
     16 S          58.2096   91.2797    5.3337 S.2     1  UNL1        0.0508
     17 N          63.5159   89.7239   12.7429 N.1     1  UNL1       -0.1907
     18 C          62.7792   88.8682   11.7555 C.1     1  UNL1        0.1035
     19 O          63.1472   85.8910   11.7823 O.3     1  UNL1       -0.4528
     20 C          63.0067   84.4352   12.1150 C.ar    1  UNL1        0.1453
     21 C          62.9516   83.4165   11.0154 C.ar    1  UNL1        0.0374
     22 C          62.8111   81.9605   11.3481 C.ar    1  UNL1        0.0070
     23 C          62.7256   81.5234   12.7804 C.ar    1  UNL1        0.0716
     24 C          62.7807   82.5421   13.8800 C.ar    1  UNL1        0.0069
     25 C          62.9213   83.9979   13.5474 C.ar    1  UNL1        0.0361
     26 C          62.9764   85.0166   14.6470 C.ar    1  UNL1        0.0255
     27 C          63.9486   86.1560   14.5659 C.ar    1  UNL1        0.0242
     28 C          64.0037   87.1747   15.6655 C.ar    1  UNL1        0.1222
     29 N          63.0866   87.0540   16.8463 N.ar    1  UNL1       -0.1464
     30 N          62.1143   85.9146   16.9275 N.ar    1  UNL1       -0.1464
     31 C          62.0592   84.8959   15.8278 C.ar    1  UNL1        0.1222
     32 C          62.5851   80.0675   13.1131 C.3     1  UNL1        0.4186
     33 F          62.4446   78.6116   13.4457 F       1  UNL1       -0.1659
     34 F          62.4111   80.4154   14.5617 F       1  UNL1       -0.1659
     35 F          62.7591   79.7197   11.6644 F       1  UNL1       -0.1659
@<TRIPOS>BOND
     1    17    18    3
     2    18     1    1
     3     1     2   ar
     4     2     3   ar
     5     3     7    1
     6     7     8    2
     7     7     9    2
     8     7    10    1
     9    10    12    1
    10    12    13   ar
    11    13    14   ar
    12    14    15   ar
    13    15    16   ar
    14     3     4   ar
    15     4     5   ar
    16     5     6   ar
    17     6    19    1
    18    19    20    1
    19    20    21   ar
    20    21    22   ar
    21    22    23   ar
    22    23    32    1
    23    32    33    1
    24    32    34    1
    25    32    35    1
    26    23    24   ar
    27    24    25   ar
    28    25    26    1
    29    26    27   ar
    30    27    28   ar
    31    28    29   ar
    32    29    30   ar
    33    30    31   ar
    34     6     1   ar
    35    25    20   ar
    36    31    26   ar
    37    16    12   ar
    38    10    11    1
@<TRIPOS>MOLECULE
*****
 35 38 0 0 0
SMALL
GASTEIGER

@<TRIPOS>ATOM
      1 C          62.9993   90.4115   11.0749 C.ar    1  UNL1        0.1042
      2 C          63.9246   91.5908   11.0203 C.ar    1  UNL1        0.0335
      3 C          64.9261   91.8096   12.1153 C.ar    1  UNL1        0.1261
      4 C          65.0024   90.8490   13.2648 C.ar    1  UNL1        0.0234
      5 C          64.0771   89.6698   13.3194 C.ar    1  UNL1        0.0396
      6 C          63.0755   89.4510   12.2244 C.ar    1  UNL1        0.1549
      7 S          65.8515   92.9889   12.0607 S.O2    1  UNL1        0.0751
      8 O          65.5781   93.2704   13.5084 O.2     1  UNL1       -0.1499
      9 O          66.1248   92.7075   10.6129 O.2     1  UNL1       -0.1499
     10 N          66.7767   94.1682   12.0061 N.pl3   1  UNL1       -0.1925
     11 H          67.4107   94.3310   12.7415 H       1  UNL1        0.1758
     12 C          66.7361   95.0997   10.8310 C.ar    1  UNL1        0.1977
     13 N          67.7121   95.1253    9.6922 N.ar    1  UNL1       -0.1997
     14 C          67.2916   96.2105    8.7457 C.ar    1  UNL1        0.2082
     15 N          66.0557   96.8555    9.2997 N.ar    1  UNL1       -0.1840
     16 S          65.7125   96.1689   10.5884 S.2     1  UNL1        0.0508
     17 N          60.9961   89.9739    8.8849 N.1     1  UNL1       -0.1907
     18 C          61.9977   90.1927    9.9799 C.1     1  UNL1        0.1035
     19 O          62.1502   88.2716   12.2791 O.3     1  UNL1       -0.4528
     20 C          62.7088   86.8852   12.4053 C.ar    1  UNL1        0.1453
     21 C          63.5834   86.5323   13.5717 C.ar    1  UNL1        0.0374
     22 C          64.1420   85.1459   13.6979 C.ar    1  UNL1        0.0070
     23 C          63.8260   84.1125   12.6576 C.ar    1  UNL1        0.0716
     24 C          62.9514   84.4654   11.4912 C.ar    1  UNL1        0.0069
     25 C          62.3928   85.8517   11.3650 C.ar    1  UNL1        0.0361
     26 C          61.5182   86.2046   10.1986 C.ar    1  UNL1        0.0255
     27 C          61.8820   85.7381    8.8202 C.ar    1  UNL1        0.0242
     28 C          61.0074   86.0911    7.6538 C.ar    1  UNL1        0.1222
     29 N          59.7690   86.9105    7.8657 N.ar    1  UNL1       -0.1464
     30 N          59.4052   87.3770    9.2442 N.ar    1  UNL1       -0.1464
     31 C          60.2798   87.0241   10.4106 C.ar    1  UNL1        0.1222
     32 C          64.3846   82.7261   12.7838 C.3     1  UNL1        0.4186
     33 F          64.9432   81.3397   12.9101 F       1  UNL1       -0.1659
     34 F          64.7587   82.7447   11.3314 F       1  UNL1       -0.1659
     35 F          64.0104   82.7076   14.2363 F       1  UNL1       -0.1659
@<TRIPOS>BOND
     1    17    18    3
     2    18     1    1
     3     1     2   ar
     4     2     3   ar
     5     3     7    1
     6     7     8    2
     7     7     9    2
     8     7    10    1
     9    10    12    1
    10    12    13   ar
    11    13    14   ar
    12    14    15   ar
    13    15    16   ar
    14     3     4   ar
    15     4     5   ar
    16     5     6   ar
    17     6    19    1
    18    19    20    1
    19    20    21   ar
    20    21    22   ar
    21    22    23   ar
    22    23    32    1
    23    32    33    1
    24    32    34    1
    25    32    35    1
    26    23    24   ar
    27    24    25   ar
    28    25    26    1
    29    26    27   ar
    30    27    28   ar
    31    28    29   ar
    32    29    30   ar
    33    30    31   ar
    34     6     1   ar
    35    25    20   ar
    36    31    26   ar
    37    16    12   ar
    38    10    11    1
@<TRIPOS>MOLECULE
*****
 35 38 0 0 0
SMALL
GASTEIGER

@<TRIPOS>ATOM
      1 C          63.1102   88.9266   12.5297 C.ar    1  UNL1        0.1042
      2 C          63.0919   87.4302   12.6317 C.ar    1  UNL1        0.0335
      3 C          63.8265   86.7454   13.7458 C.ar    1  UNL1        0.1261
      4 C          64.5796   87.5569   14.7579 C.ar    1  UNL1        0.0234
      5 C          64.5980   89.0533   14.6559 C.ar    1  UNL1        0.0396
      6 C          63.8633   89.7381   13.5418 C.ar    1  UNL1        0.1549
      7 S          63.8081   85.2489   13.8478 S.O2    1  UNL1        0.0751
      8 O          65.1517   85.2778   14.5141 O.2     1  UNL1       -0.1499
      9 O          62.4645   85.2200   13.1816 O.2     1  UNL1       -0.1499
     10 N          63.7897   83.7525   13.9498 N.pl3   1  UNL1       -0.1925
     11 H          63.8177   83.3190   14.8333 H       1  UNL1        0.1758
     12 C          63.7287   82.9166   12.7058 C.ar    1  UNL1        0.1977
     13 N          62.8327   81.7348   12.4808 N.ar    1  UNL1       -0.1997
     14 C          63.1033   81.2036   11.1042 C.ar    1  UNL1        0.2082
     15 N          64.1664   82.0571   10.4786 N.ar    1  UNL1       -0.1840
     16 S          64.5530   83.1158   11.4685 S.2     1  UNL1        0.0508
     17 N          61.6409   90.2964   10.3015 N.1     1  UNL1       -0.1907
     18 C          62.3756   89.6115   11.4156 C.1     1  UNL1        0.1035
     19 O          63.8817   91.2346   13.4398 O.3     1  UNL1       -0.4528
     20 C          64.7203   91.9047   12.3920 C.ar    1  UNL1        0.1453
     21 C          64.2377   91.9692   10.9733 C.ar    1  UNL1        0.0374
     22 C          65.0764   92.6393    9.9255 C.ar    1  UNL1        0.0070
     23 C          66.3976   93.2448   10.2966 C.ar    1  UNL1        0.0716
     24 C          66.8802   93.1803   11.7154 C.ar    1  UNL1        0.0069
     25 C          66.0416   92.5102   12.7631 C.ar    1  UNL1        0.0361
     26 C          66.5242   92.4457   14.1819 C.ar    1  UNL1        0.0255
     27 C          67.9728   92.1844   14.4702 C.ar    1  UNL1        0.0242
     28 C          68.4554   92.1199   15.8890 C.ar    1  UNL1        0.1222
     29 N          67.4894   92.3166   17.0194 N.ar    1  UNL1       -0.1464
     30 N          66.0407   92.5779   16.7312 N.ar    1  UNL1       -0.1464
     31 C          65.5581   92.6424   15.3124 C.ar    1  UNL1        0.1222
     32 C          67.2362   93.9149    9.2489 C.3     1  UNL1        0.4186
     33 F          68.0749   94.5849    8.2011 F       1  UNL1       -0.1659
     34 F          66.5439   95.2161    9.5271 F       1  UNL1       -0.1659
     35 F          67.9284   92.6136    8.9708 F       1  UNL1       -0.1659
@<TRIPOS>BOND
     1    17    18    3
     2    18     1    1
     3     1     2   ar
     4     2     3   ar
     5     3     7    1
     6     7     8    2
     7     7     9    2
     8     7    10    1
     9    10    12    1
    10    12    13   ar
    11    13    14   ar
    12    14    15   ar
    13    15    16   ar
    14     3     4   ar
    15     4     5   ar
    16     5     6   ar
    17     6    19    1
    18    19    20    1
    19    20    21   ar
    20    21    22   ar
    21    22    23   ar
    22    23    32    1
    23    32    33    1
    24    32    34    1
    25    32    35    1
    26    23    24   ar
    27    24    25   ar
    28    25    26    1
    29    26    27   ar
    30    27    28   ar
    31    28    29   ar
    32    29    30   ar
    33    30    31   ar
    34     6     1   ar
    35    25    20   ar
    36    31    26   ar
    37    16    12   ar
    38    10    11    1
@<TRIPOS>MOLECULE
*****
 35 38 0 0 0
SMALL
GASTEIGER

@<TRIPOS>ATOM
      1 C          60.0336   89.0963   11.7103 C.ar    1  UNL1        0.1042
      2 C          59.4465   89.0184   10.3323 C.ar    1  UNL1        0.0335
      3 C          60.3214   89.2245    9.1314 C.ar    1  UNL1        0.1261
      4 C          61.7835   89.5084    9.3087 C.ar    1  UNL1        0.0234
      5 C          62.3707   89.5864   10.6867 C.ar    1  UNL1        0.0396
      6 C          61.4958   89.3803   11.8876 C.ar    1  UNL1        0.1549
      7 S          59.7341   89.1465    7.7533 S.O2    1  UNL1        0.0751
      8 O          59.3780   90.6020    7.8229 O.2     1  UNL1       -0.1499
      9 O          60.0903   87.6911    7.6838 O.2     1  UNL1       -0.1499
     10 N          59.1469   89.0687    6.3753 N.pl3   1  UNL1       -0.1925
     11 H          58.8459   88.2026    6.0167 H       1  UNL1        0.1758
     12 C          59.0183   90.3104    5.5435 C.ar    1  UNL1        0.1977
     13 N          60.1473   91.0677    4.9097 N.ar    1  UNL1       -0.1997
     14 C          59.5649   92.2381    4.1740 C.ar    1  UNL1        0.2082
     15 N          58.0760   92.2040    4.3533 N.ar    1  UNL1       -0.1840
     16 S          57.7382   91.0126    5.1997 S.2     1  UNL1        0.0508
     17 N          58.2837   88.6841   14.1120 N.1     1  UNL1       -0.1907
     18 C          59.1587   88.8902   12.9112 C.1     1  UNL1        0.1035
     19 O          62.0830   89.4582   13.2657 O.3     1  UNL1       -0.4528
     20 C          63.3954   90.1511   13.4836 C.ar    1  UNL1        0.1453
     21 C          63.7587   91.3473   12.6547 C.ar    1  UNL1        0.0374
     22 C          65.0712   92.0402   12.8727 C.ar    1  UNL1        0.0070
     23 C          66.0202   91.5369   13.9195 C.ar    1  UNL1        0.0716
     24 C          65.6569   90.3407   14.7484 C.ar    1  UNL1        0.0069
     25 C          64.3446   89.6478   14.5305 C.ar    1  UNL1        0.0361
     26 C          63.9812   88.4516   15.3594 C.ar    1  UNL1        0.0255
     27 C          63.1837   88.6254   16.6178 C.ar    1  UNL1        0.0242
     28 C          62.8204   87.4292   17.4468 C.ar    1  UNL1        0.1222
     29 N          63.2546   86.0592   17.0172 N.ar    1  UNL1       -0.1464
     30 N          64.0522   85.8853   15.7587 N.ar    1  UNL1       -0.1464
     31 C          64.4155   87.0815   14.9298 C.ar    1  UNL1        0.1222
     32 C          67.3326   92.2297   14.1374 C.3     1  UNL1        0.4186
     33 F          68.6451   92.9227   14.3553 F       1  UNL1       -0.1659
     34 F          67.7413   91.1533   15.0987 F       1  UNL1       -0.1659
     35 F          66.9239   93.3062   13.1762 F       1  UNL1       -0.1659
@<TRIPOS>BOND
     1    17    18    3
     2    18     1    1
     3     1     2   ar
     4     2     3   ar
     5     3     7    1
     6     7     8    2
     7     7     9    2
     8     7    10    1
     9    10    12    1
    10    12    13   ar
    11    13    14   ar
    12    14    15   ar
    13    15    16   ar
    14     3     4   ar
    15     4     5   ar
    16     5     6   ar
    17     6    19    1
    18    19    20    1
    19    20    21   ar
    20    21    22   ar
    21    22    23   ar
    22    23    32    1
    23    32    33    1
    24    32    34    1
    25    32    35    1
    26    23    24   ar
    27    24    25   ar
    28    25    26    1
    29    26    27   ar
    30    27    28   ar
    31    28    29   ar
    32    29    30   ar
    33    30    31   ar
    34     6     1   ar
    35    25    20   ar
    36    31    26   ar
    37    16    12   ar
    38    10    11    1
@<TRIPOS>MOLECULE
*****
 35 38 0 0 0
SMALL
GASTEIGER

@<TRIPOS>ATOM
      1 C          63.5779   88.5440   15.2873 C.ar    1  UNL1        0.1042
      2 C          63.7912   87.0855   15.5651 C.ar    1  UNL1        0.0335
      3 C          63.8047   86.1006   14.4338 C.ar    1  UNL1        0.1261
      4 C          63.6048   86.5743   13.0246 C.ar    1  UNL1        0.0234
      5 C          63.3914   88.0328   12.7469 C.ar    1  UNL1        0.0396
      6 C          63.3780   89.0176   13.8782 C.ar    1  UNL1        0.1549
      7 S          64.0181   84.6420   14.7116 S.O2    1  UNL1        0.0751
      8 O          65.4726   84.7911   14.3768 O.2     1  UNL1       -0.1499
      9 O          62.5636   84.4930   15.0464 O.2     1  UNL1       -0.1499
     10 N          64.2315   83.1836   14.9894 N.pl3   1  UNL1       -0.1925
     11 H          64.7846   82.9040   15.7544 H       1  UNL1        0.1758
     12 C          63.6022   82.1510   14.1018 C.ar    1  UNL1        0.1977
     13 N          62.6975   81.0400   14.5457 N.ar    1  UNL1       -0.1997
     14 C          62.3033   80.2505   13.3327 C.ar    1  UNL1        0.2082
     15 N          62.9644   80.8737   12.1391 N.ar    1  UNL1       -0.1840
     16 S          63.7671   82.0483   12.6144 S.2     1  UNL1        0.0508
     17 N          63.5510   90.5136   17.5499 N.1     1  UNL1       -0.1907
     18 C          63.5644   89.5288   16.4186 C.1     1  UNL1        0.1035
     19 O          63.1646   90.4762   13.6003 O.3     1  UNL1       -0.4528
     20 C          64.0682   91.1977   12.6450 C.ar    1  UNL1        0.1453
     21 C          65.3121   91.8672   13.1495 C.ar    1  UNL1        0.0374
     22 C          66.2157   92.5887   12.1940 C.ar    1  UNL1        0.0070
     23 C          65.8755   92.6408   10.7341 C.ar    1  UNL1        0.0716
     24 C          64.6316   91.9713   10.2295 C.ar    1  UNL1        0.0069
     25 C          63.7280   91.2498   11.1849 C.ar    1  UNL1        0.0361
     26 C          62.4841   90.5803   10.6804 C.ar    1  UNL1        0.0255
     27 C          61.1370   91.0663   11.1267 C.ar    1  UNL1        0.0242
     28 C          59.8932   90.3968   10.6222 C.ar    1  UNL1        0.1222
     29 N          59.9963   89.2414    9.6713 N.ar    1  UNL1       -0.1464
     30 N          61.3434   88.7554    9.2249 N.ar    1  UNL1       -0.1464
     31 C          62.5873   89.4248    9.7294 C.ar    1  UNL1        0.1222
     32 C          66.7791   93.3623    9.7787 C.3     1  UNL1        0.4186
     33 F          67.6828   94.0839    8.8233 F       1  UNL1       -0.1659
     34 F          65.9353   94.5953    9.9118 F       1  UNL1       -0.1659
     35 F          67.6229   92.1294    9.6456 F       1  UNL1       -0.1659
@<TRIPOS>BOND
     1    17    18    3
     2    18     1    1
     3     1     2   ar
     4     2     3   ar
     5     3     7    1
     6     7     8    2
     7     7     9    2
     8     7    10    1
     9    10    12    1
    10    12    13   ar
    11    13    14   ar
    12    14    15   ar
    13    15    16   ar
    14     3     4   ar
    15     4     5   ar
    16     5     6   ar
    17     6    19    1
    18    19    20    1
    19    20    21   ar
    20    21    22   ar
    21    22    23   ar
    22    23    32    1
    23    32    33    1
    24    32    34    1
    25    32    35    1
    26    23    24   ar
    27    24    25   ar
    28    25    26    1
    29    26    27   ar
    30    27    28   ar
    31    28    29   ar
    32    29    30   ar
    33    30    31   ar
    34     6     1   ar
    35    25    20   ar
    36    31    26   ar
    37    16    12   ar
    38    10    11    1
@<TRIPOS>MOLECULE
*****
 35 38 0 0 0
SMALL
GASTEIGER

@<TRIPOS>ATOM
      1 C          62.0280   86.8437    9.9229 C.ar    1  UNL1        0.1042
      2 C          61.0998   87.1708    8.7910 C.ar    1  UNL1        0.0335
      3 C          60.3845   88.4890    8.7646 C.ar    1  UNL1        0.1261
      4 C          60.5974   89.4801    9.8702 C.ar    1  UNL1        0.0234
      5 C          61.5256   89.1530   11.0022 C.ar    1  UNL1        0.0396
      6 C          62.2409   87.8348   11.0285 C.ar    1  UNL1        0.1549
      7 S          59.4562   88.8161    7.6326 S.O2    1  UNL1        0.0751
      8 O          60.0936   90.1675    7.5005 O.2     1  UNL1       -0.1499
      9 O          58.8188   87.4648    7.7647 O.2     1  UNL1       -0.1499
     10 N          58.5280   89.1433    6.5006 N.pl3   1  UNL1       -0.1925
     11 H          57.7268   88.5924    6.3461 H       1  UNL1        0.1758
     12 C          58.8205   90.3097    5.6040 C.ar    1  UNL1        0.1977
     13 N          60.1791   90.7505    5.1458 N.ar    1  UNL1       -0.1997
     14 C          60.0041   91.9534    4.2668 C.ar    1  UNL1        0.2082
     15 N          58.5373   92.2560    4.1819 N.ar    1  UNL1       -0.1840
     16 S          57.8059   91.2401    5.0084 S.2     1  UNL1        0.0508
     17 N          63.4586   84.2073    9.9756 N.1     1  UNL1       -0.1907
     18 C          62.7433   85.5255    9.9493 C.1     1  UNL1        0.1035
     19 O          63.1692   87.5077   12.1605 O.3     1  UNL1       -0.4528
     20 C          63.7483   88.6093   12.9978 C.ar    1  UNL1        0.1453
     21 C          63.9754   89.9659   12.3995 C.ar    1  UNL1        0.0374
     22 C          64.5545   91.0675   13.2368 C.ar    1  UNL1        0.0070
     23 C          64.9066   90.8125   14.6724 C.ar    1  UNL1        0.0716
     24 C          64.6796   89.4559   15.2707 C.ar    1  UNL1        0.0069
     25 C          64.1004   88.3543   14.4335 C.ar    1  UNL1        0.0361
     26 C          63.8734   86.9976   15.0318 C.ar    1  UNL1        0.0255
     27 C          63.2688   86.8724   16.3988 C.ar    1  UNL1        0.0242
     28 C          63.0418   85.5158   16.9971 C.ar    1  UNL1        0.1222
     29 N          63.4194   84.2844   16.2284 N.ar    1  UNL1       -0.1464
     30 N          64.0240   84.4095   14.8613 N.ar    1  UNL1       -0.1464
     31 C          64.2510   85.7661   14.2630 C.ar    1  UNL1        0.1222
     32 C          65.4857   91.9141   15.5096 C.3     1  UNL1        0.4186
     33 F          66.0648   93.0158   16.3470 F       1  UNL1       -0.1659
     34 F          66.5353   92.1558   14.4657 F       1  UNL1       -0.1659
     35 F          64.4361   91.6725   16.5536 F       1  UNL1       -0.1659
@<TRIPOS>BOND
     1    17    18    3
     2    18     1    1
     3     1     2   ar
     4     2     3   ar
     5     3     7    1
     6     7     8    2
     7     7     9    2
     8     7    10    1
     9    10    12    1
    10    12    13   ar
    11    13    14   ar
    12    14    15   ar
    13    15    16   ar
    14     3     4   ar
    15     4     5   ar
    16     5     6   ar
    17     6    19    1
    18    19    20    1
    19    20    21   ar
    20    21    22   ar
    21    22    23   ar
    22    23    32    1
    23    32    33    1
    24    32    34    1
    25    32    35    1
    26    23    24   ar
    27    24    25   ar
    28    25    26    1
    29    26    27   ar
    30    27    28   ar
    31    28    29   ar
    32    29    30   ar
    33    30    31   ar
    34     6     1   ar
    35    25    20   ar
    36    31    26   ar
    37    16    12   ar
    38    10    11    1
@<TRIPOS>MOLECULE
*****
 35 38 0 0 0
SMALL
GASTEIGER

@<TRIPOS>ATOM
      1 C          63.4424   89.5188   12.1844 C.ar    1  UNL1        0.1042
      2 C          63.1096   88.0562   12.1829 C.ar    1  UNL1        0.0335
      3 C          63.4968   87.1977   13.3504 C.ar    1  UNL1        0.1261
      4 C          64.2167   87.8018   14.5195 C.ar    1  UNL1        0.0234
      5 C          64.5494   89.2644   14.5210 C.ar    1  UNL1        0.0396
      6 C          64.1622   90.1229   13.3535 C.ar    1  UNL1        0.1549
      7 S          63.1641   85.7350   13.3489 S.O2    1  UNL1        0.0751
      8 O          64.1902   85.5005   14.4175 O.2     1  UNL1       -0.1499
      9 O          62.1379   85.9695   12.2802 O.2     1  UNL1       -0.1499
     10 N          62.8314   84.2724   13.3473 N.pl3   1  UNL1       -0.1925
     11 H          62.3102   83.8853   14.0875 H       1  UNL1        0.1758
     12 C          63.2927   83.3995   12.2180 C.ar    1  UNL1        0.1977
     13 N          62.6699   82.1019   11.7956 N.ar    1  UNL1       -0.1997
     14 C          63.4500   81.5713   10.6294 C.ar    1  UNL1        0.2082
     15 N          64.5550   82.5410   10.3312 N.ar    1  UNL1       -0.1840
     16 S          64.4577   83.6708   11.3130 S.2     1  UNL1        0.0508
     17 N          62.6680   91.2357    9.8494 N.1     1  UNL1       -0.1907
     18 C          63.0552   90.3772   11.0169 C.1     1  UNL1        0.1035
     19 O          64.4950   91.5856   13.3551 O.3     1  UNL1       -0.4528
     20 C          65.6671   92.0872   14.1452 C.ar    1  UNL1        0.1453
     21 C          65.6815   91.9446   15.6383 C.ar    1  UNL1        0.0374
     22 C          66.8537   92.4463   16.4285 C.ar    1  UNL1        0.0070
     23 C          68.0115   93.0906   15.7254 C.ar    1  UNL1        0.0716
     24 C          67.9972   93.2332   14.2323 C.ar    1  UNL1        0.0069
     25 C          66.8251   92.7315   13.4422 C.ar    1  UNL1        0.0361
     26 C          66.8107   92.8742   11.9490 C.ar    1  UNL1        0.0255
     27 C          67.7727   92.0853   11.1110 C.ar    1  UNL1        0.0242
     28 C          67.7584   92.2279    9.6179 C.ar    1  UNL1        0.1222
     29 N          66.7821   93.1594    8.9628 N.ar    1  UNL1       -0.1464
     30 N          65.8200   93.9483    9.8008 N.ar    1  UNL1       -0.1464
     31 C          65.8344   93.8057   11.2939 C.ar    1  UNL1        0.1222
     32 C          69.1837   93.5922   16.5156 C.3     1  UNL1        0.4186
     33 F          70.3559   94.0939   17.3057 F       1  UNL1       -0.1659
     34 F          68.8384   95.0010   16.1334 F       1  UNL1       -0.1659
     35 F          69.5290   92.1835   16.8977 F       1  UNL1       -0.1659
@<TRIPOS>BOND
     1    17    18    3
     2    18     1    1
     3     1     2   ar
     4     2     3   ar
     5     3     7    1
     6     7     8    2
     7     7     9    2
     8     7    10    1
     9    10    12    1
    10    12    13   ar
    11    13    14   ar
    12    14    15   ar
    13    15    16   ar
    14     3     4   ar
    15     4     5   ar
    16     5     6   ar
    17     6    19    1
    18    19    20    1
    19    20    21   ar
    20    21    22   ar
    21    22    23   ar
    22    23    32    1
    23    32    33    1
    24    32    34    1
    25    32    35    1
    26    23    24   ar
    27    24    25   ar
    28    25    26    1
    29    26    27   ar
    30    27    28   ar
    31    28    29   ar
    32    29    30   ar
    33    30    31   ar
    34     6     1   ar
    35    25    20   ar
    36    31    26   ar
    37    16    12   ar
    38    10    11    1
