@<TRIPOS>MOLECULE
*****
 32 35 0 0 0
SMALL
GASTEIGER

@<TRIPOS>ATOM
      1 N          64.6814   89.6676   13.4809 N.pl3   1  UNL1       -0.3069
      2 C          64.6785   88.3101   14.1191 C.3     1  UNL1        0.0925
      3 C          63.8398   87.2103   13.5386 C.3     1  UNL1        0.0415
      4 C          63.0040   87.4679   12.3199 C.3     1  UNL1        0.0807
      5 C          63.0070   88.8254   11.6817 C.3     1  UNL1        0.0415
      6 C          63.8457   89.9253   12.2623 C.3     1  UNL1        0.0925
      7 C          65.1649   91.3580   15.3938 C.ar    1  UNL1        0.0817
      8 C          66.0036   92.4578   15.9743 C.ar    1  UNL1        0.0154
      9 C          67.1976   92.9670   15.2225 C.ar    1  UNL1        0.0722
     10 C          67.5528   92.3764   13.8902 C.ar    1  UNL1        0.0052
     11 C          66.7141   91.2766   13.3097 C.ar    1  UNL1        0.0151
     12 C          65.5202   90.7674   14.0615 C.ar    1  UNL1        0.0575
     13 C          68.0363   94.0668   15.8030 C.3     1  UNL1        0.4186
     14 F          68.8750   95.1665   16.3836 F       1  UNL1       -0.1659
     15 F          68.6793   93.0839   16.7360 F       1  UNL1       -0.1659
     16 F          67.3934   95.0497   14.8700 F       1  UNL1       -0.1659
     17 N          62.7770   90.3396   16.8973 N.1     1  UNL1       -0.1908
     18 C          63.9710   90.8488   16.1455 C.1     1  UNL1        0.1017
     19 N          62.1654   86.3681   11.7394 N.pl3   1  UNL1       -0.2872
     20 C          62.2991   84.9681   12.2608 C.ar    1  UNL1        0.0516
     21 C          62.6162   83.8442   11.3194 C.ar    1  UNL1        0.0157
     22 C          62.7499   82.4441   11.8408 C.ar    1  UNL1        0.0127
     23 C          62.5665   82.1679   13.3037 C.ar    1  UNL1        0.0578
     24 CL         62.7002   80.7678   13.8251 Cl      1  UNL1       -0.0822
     25 C          62.2494   83.2917   14.2451 C.ar    1  UNL1        0.0127
     26 C          62.1157   84.6918   13.7237 C.ar    1  UNL1        0.0157
     27 C          61.1930   86.6684   10.6375 C.ar    1  UNL1        0.0710
     28 C          61.2902   85.9370    9.3314 C.ar    1  UNL1        0.0180
     29 C          60.3178   86.2373    8.2295 C.ar    1  UNL1        0.0220
     30 C          59.2482   87.2690    8.4336 C.ar    1  UNL1        0.0990
     31 N          59.1510   88.0003    9.7395 N.ar    1  UNL1       -0.2410
     32 C          60.1234   87.7001   10.8415 C.ar    1  UNL1        0.1136
@<TRIPOS>BOND
     1    17    18    3
     2    18     7    1
     3     7     8   ar
     4     8     9   ar
     5     9    13    1
     6    13    14    1
     7    13    15    1
     8    13    16    1
     9     9    10   ar
    10    10    11   ar
    11    11    12   ar
    12    12     1    1
    13     1     2    1
    14     2     3    1
    15     3     4    1
    16     4    19    1
    17    19    20    1
    18    20    21   ar
    19    21    22   ar
    20    22    23   ar
    21    23    24    1
    22    23    25   ar
    23    25    26   ar
    24    19    27    1
    25    27    28   ar
    26    28    29   ar
    27    29    30   ar
    28    30    31   ar
    29    31    32   ar
    30     4     5    1
    31     5     6    1
    32    12     7   ar
    33     6     1    1
    34    26    20   ar
    35    32    27   ar
@<TRIPOS>MOLECULE
*****
 32 35 0 0 0
SMALL
GASTEIGER

@<TRIPOS>ATOM
      1 N          60.9403   86.9683    9.4023 N.pl3   1  UNL1       -0.3069
      2 C          60.5912   87.0831   10.8566 C.3     1  UNL1        0.0925
      3 C          61.1630   86.1097   11.8442 C.3     1  UNL1        0.0415
      4 C          62.0841   85.0215   11.3777 C.3     1  UNL1        0.0807
      5 C          62.4332   84.9068    9.9234 C.3     1  UNL1        0.0415
      6 C          61.8613   85.8802    8.9357 C.3     1  UNL1        0.0925
      7 C          60.6002   89.4131    8.5915 C.ar    1  UNL1        0.0817
      8 C          60.0283   90.3864    7.6038 C.ar    1  UNL1        0.0154
      9 C          59.2247   89.8884    6.4393 C.ar    1  UNL1        0.0722
     10 C          58.9929   88.4170    6.2624 C.ar    1  UNL1        0.0052
     11 C          59.5648   87.4437    7.2501 C.ar    1  UNL1        0.0151
     12 C          60.3684   87.9417    8.4146 C.ar    1  UNL1        0.0575
     13 C          58.6528   90.8618    5.4516 C.3     1  UNL1        0.4186
     14 F          58.0808   91.8352    4.4640 F       1  UNL1       -0.1659
     15 F          57.2664   90.4365    5.8353 F       1  UNL1       -0.1659
     16 F          60.0391   91.2871    5.0679 F       1  UNL1       -0.1659
     17 N          62.2074   90.4092   10.9205 N.1     1  UNL1       -0.1908
     18 C          61.4038   89.9111    9.7560 C.1     1  UNL1        0.1017
     19 N          62.6559   84.0482   12.3653 N.pl3   1  UNL1       -0.2872
     20 C          62.7094   82.5865   12.0329 C.ar    1  UNL1        0.0516
     21 C          63.2322   82.1391   10.7001 C.ar    1  UNL1        0.0157
     22 C          63.2856   80.6774   10.3676 C.ar    1  UNL1        0.0127
     23 C          62.8163   79.6630   11.3680 C.ar    1  UNL1        0.0578
     24 CL         62.8698   78.2013   11.0356 Cl      1  UNL1       -0.0822
     25 C          62.2936   80.1104   12.7009 C.ar    1  UNL1        0.0127
     26 C          62.2401   81.5722   13.0333 C.ar    1  UNL1        0.0157
     27 C          63.1743   84.5366   13.6854 C.ar    1  UNL1        0.0710
     28 C          64.5847   85.0344   13.7996 C.ar    1  UNL1        0.0180
     29 C          65.1031   85.5228   15.1197 C.ar    1  UNL1        0.0220
     30 C          64.2111   85.5134   16.3257 C.ar    1  UNL1        0.0990
     31 N          62.8008   85.0156   16.2115 N.ar    1  UNL1       -0.2410
     32 C          62.2823   84.5272   14.8914 C.ar    1  UNL1        0.1136
@<TRIPOS>BOND
     1    17    18    3
     2    18     7    1
     3     7     8   ar
     4     8     9   ar
     5     9    13    1
     6    13    14    1
     7    13    15    1
     8    13    16    1
     9     9    10   ar
    10    10    11   ar
    11    11    12   ar
    12    12     1    1
    13     1     2    1
    14     2     3    1
    15     3     4    1
    16     4    19    1
    17    19    20    1
    18    20    21   ar
    19    21    22   ar
    20    22    23   ar
    21    23    24    1
    22    23    25   ar
    23    25    26   ar
    24    19    27    1
    25    27    28   ar
    26    28    29   ar
    27    29    30   ar
    28    30    31   ar
    29    31    32   ar
    30     4     5    1
    31     5     6    1
    32    12     7   ar
    33     6     1    1
    34    26    20   ar
    35    32    27   ar
@<TRIPOS>MOLECULE
*****
 32 35 0 0 0
SMALL
GASTEIGER

@<TRIPOS>ATOM
      1 N          63.6416   86.3390   13.5714 N.pl3   1  UNL1       -0.3069
      2 C          64.5259   86.8110   14.6873 C.3     1  UNL1        0.0925
      3 C          64.9217   88.2554   14.7709 C.3     1  UNL1        0.0415
      4 C          64.4331   89.2279   13.7385 C.3     1  UNL1        0.0807
      5 C          63.5488   88.7559   12.6226 C.3     1  UNL1        0.0415
      6 C          63.1530   87.3114   12.5391 C.3     1  UNL1        0.0925
      7 C          62.5586   84.2369   14.6477 C.ar    1  UNL1        0.0817
      8 C          62.1629   82.7924   14.5641 C.ar    1  UNL1        0.0154
      9 C          62.4543   82.0057   13.3207 C.ar    1  UNL1        0.0722
     10 C          63.1415   82.6633   12.1609 C.ar    1  UNL1        0.0052
     11 C          63.5372   84.1077   12.2445 C.ar    1  UNL1        0.0151
     12 C          63.2458   84.8945   13.4879 C.ar    1  UNL1        0.0575
     13 C          62.0585   80.5612   13.2372 C.3     1  UNL1        0.4186
     14 F          61.6627   79.1168   13.1537 F       1  UNL1       -0.1659
     15 F          61.0681   80.7686   14.3444 F       1  UNL1       -0.1659
     16 F          63.0490   80.3538   12.1300 F       1  UNL1       -0.1659
     17 N          61.9758   85.8104   17.1345 N.1     1  UNL1       -0.1908
     18 C          62.2672   85.0236   15.8911 C.1     1  UNL1        0.1017
     19 N          64.8289   90.6723   13.8221 N.pl3   1  UNL1       -0.2872
     20 C          65.3523   91.3781   12.6064 C.ar    1  UNL1        0.0516
     21 C          66.8148   91.6910   12.4923 C.ar    1  UNL1        0.0157
     22 C          67.3381   92.3968   11.2766 C.ar    1  UNL1        0.0127
     23 C          66.3990   92.7897   10.1750 C.ar    1  UNL1        0.0578
     24 CL         66.9223   93.4955    8.9593 Cl      1  UNL1       -0.0822
     25 C          64.9364   92.4767   10.2891 C.ar    1  UNL1        0.0127
     26 C          64.4131   91.7709   11.5048 C.ar    1  UNL1        0.0157
     27 C          64.7014   91.4108   15.1214 C.ar    1  UNL1        0.0710
     28 C          65.8661   92.1875   15.6601 C.ar    1  UNL1        0.0180
     29 C          65.7386   92.9261   16.9594 C.ar    1  UNL1        0.0220
     30 C          64.4463   92.8881   17.7200 C.ar    1  UNL1        0.0990
     31 N          63.2816   92.1114   17.1813 N.ar    1  UNL1       -0.2410
     32 C          63.4091   91.3728   15.8820 C.ar    1  UNL1        0.1136
@<TRIPOS>BOND
     1    17    18    3
     2    18     7    1
     3     7     8   ar
     4     8     9   ar
     5     9    13    1
     6    13    14    1
     7    13    15    1
     8    13    16    1
     9     9    10   ar
    10    10    11   ar
    11    11    12   ar
    12    12     1    1
    13     1     2    1
    14     2     3    1
    15     3     4    1
    16     4    19    1
    17    19    20    1
    18    20    21   ar
    19    21    22   ar
    20    22    23   ar
    21    23    24    1
    22    23    25   ar
    23    25    26   ar
    24    19    27    1
    25    27    28   ar
    26    28    29   ar
    27    29    30   ar
    28    30    31   ar
    29    31    32   ar
    30     4     5    1
    31     5     6    1
    32    12     7   ar
    33     6     1    1
    34    26    20   ar
    35    32    27   ar
@<TRIPOS>MOLECULE
*****
 32 35 0 0 0
SMALL
GASTEIGER

@<TRIPOS>ATOM
      1 N          60.8518   87.1726    9.3677 N.pl3   1  UNL1       -0.3069
      2 C          60.5245   87.3561   10.8200 C.3     1  UNL1        0.0925
      3 C          61.0720   86.4009   11.8388 C.3     1  UNL1        0.0415
      4 C          61.9467   85.2621   11.4052 C.3     1  UNL1        0.0807
      5 C          62.2740   85.0785    9.9529 C.3     1  UNL1        0.0415
      6 C          61.7265   86.0338    8.9342 C.3     1  UNL1        0.0925
      7 C          60.5709   89.5981    8.4800 C.ar    1  UNL1        0.0817
      8 C          60.0234   90.5532    7.4613 C.ar    1  UNL1        0.0154
      9 C          59.2092   90.0382    6.3116 C.ar    1  UNL1        0.0722
     10 C          58.9425   88.5679    6.1806 C.ar    1  UNL1        0.0052
     11 C          59.4901   87.6127    7.1993 C.ar    1  UNL1        0.0151
     12 C          60.3042   88.1278    8.3490 C.ar    1  UNL1        0.0575
     13 C          58.6617   90.9934    5.2928 C.3     1  UNL1        0.4186
     14 F          58.1142   91.9486    4.2742 F       1  UNL1       -0.1659
     15 F          57.2655   90.5980    5.6725 F       1  UNL1       -0.1659
     16 F          60.0579   91.3889    4.9131 F       1  UNL1       -0.1659
     17 N          62.1993   90.6282   10.7794 N.1     1  UNL1       -0.1908
     18 C          61.3851   90.1131    9.6297 C.1     1  UNL1        0.1017
     19 N          62.4942   84.3069   12.4239 N.pl3   1  UNL1       -0.2872
     20 C          62.8198   84.7900   13.8062 C.ar    1  UNL1        0.0516
     21 C          63.9914   85.7005   14.0259 C.ar    1  UNL1        0.0157
     22 C          64.3170   86.1835   15.4082 C.ar    1  UNL1        0.0127
     23 C          63.4710   85.7560   16.5707 C.ar    1  UNL1        0.0578
     24 CL         63.7966   86.2391   17.9530 Cl      1  UNL1       -0.0822
     25 C          62.2995   84.8455   16.3510 C.ar    1  UNL1        0.0127
     26 C          61.9738   84.3625   14.9687 C.ar    1  UNL1        0.0157
     27 C          62.7161   82.8687   12.0604 C.ar    1  UNL1        0.0710
     28 C          63.3513   82.5162   10.7480 C.ar    1  UNL1        0.0180
     29 C          63.5731   81.0779   10.3844 C.ar    1  UNL1        0.0220
     30 C          63.1598   79.9921   11.3333 C.ar    1  UNL1        0.0990
     31 N          62.5246   80.3446   12.6456 N.ar    1  UNL1       -0.2410
     32 C          62.3028   81.7829   13.0092 C.ar    1  UNL1        0.1136
@<TRIPOS>BOND
     1    17    18    3
     2    18     7    1
     3     7     8   ar
     4     8     9   ar
     5     9    13    1
     6    13    14    1
     7    13    15    1
     8    13    16    1
     9     9    10   ar
    10    10    11   ar
    11    11    12   ar
    12    12     1    1
    13     1     2    1
    14     2     3    1
    15     3     4    1
    16     4    19    1
    17    19    20    1
    18    20    21   ar
    19    21    22   ar
    20    22    23   ar
    21    23    24    1
    22    23    25   ar
    23    25    26   ar
    24    19    27    1
    25    27    28   ar
    26    28    29   ar
    27    29    30   ar
    28    30    31   ar
    29    31    32   ar
    30     4     5    1
    31     5     6    1
    32    12     7   ar
    33     6     1    1
    34    26    20   ar
    35    32    27   ar
@<TRIPOS>MOLECULE
*****
 32 35 0 0 0
SMALL
GASTEIGER

@<TRIPOS>ATOM
      1 N          63.6541   86.3321   13.4718 N.pl3   1  UNL1       -0.3069
      2 C          64.5420   86.7964   14.5880 C.3     1  UNL1        0.0925
      3 C          64.9233   88.2434   14.6906 C.3     1  UNL1        0.0415
      4 C          64.4167   89.2263   13.6770 C.3     1  UNL1        0.0807
      5 C          63.5287   88.7620   12.5608 C.3     1  UNL1        0.0415
      6 C          63.1474   87.3148   12.4582 C.3     1  UNL1        0.0925
      7 C          62.7860   84.3283   12.0642 C.ar    1  UNL1        0.0817
      8 C          62.4047   82.8812   11.9616 C.ar    1  UNL1        0.0154
      9 C          62.5102   81.9908   13.1641 C.ar    1  UNL1        0.0722
     10 C          62.9969   82.5474   14.4692 C.ar    1  UNL1        0.0052
     11 C          63.3782   83.9945   14.5717 C.ar    1  UNL1        0.0151
     12 C          63.2727   84.8849   13.3692 C.ar    1  UNL1        0.0575
     13 C          62.1289   80.5437   13.0616 C.3     1  UNL1        0.4186
     14 F          61.7475   79.0966   12.9590 F       1  UNL1       -0.1659
     15 F          61.3727   80.6514   14.3525 F       1  UNL1       -0.1659
     16 F          62.8850   80.4359   11.7706 F       1  UNL1       -0.1659
     17 N          62.5750   86.1091    9.6591 N.1     1  UNL1       -0.1908
     18 C          62.6805   85.2187   10.8617 C.1     1  UNL1        0.1017
     19 N          64.7980   90.6733   13.7796 N.pl3   1  UNL1       -0.2872
     20 C          65.3188   91.3990   12.5745 C.ar    1  UNL1        0.0516
     21 C          66.7793   91.7235   12.4676 C.ar    1  UNL1        0.0157
     22 C          67.3001   92.4492   11.2625 C.ar    1  UNL1        0.0127
     23 C          66.3604   92.8503   10.1644 C.ar    1  UNL1        0.0578
     24 CL         66.8811   93.5760    8.9593 Cl      1  UNL1       -0.0822
     25 C          64.8998   92.5258   10.2713 C.ar    1  UNL1        0.0127
     26 C          64.3791   91.8002   11.4764 C.ar    1  UNL1        0.0157
     27 C          64.6586   91.3947   15.0873 C.ar    1  UNL1        0.0710
     28 C          65.8132   92.1776   15.6389 C.ar    1  UNL1        0.0180
     29 C          65.6737   92.8990   16.9466 C.ar    1  UNL1        0.0220
     30 C          64.3797   92.8376   17.7027 C.ar    1  UNL1        0.0990
     31 N          63.2252   92.0548   17.1512 N.ar    1  UNL1       -0.2410
     32 C          63.3646   91.3333   15.8435 C.ar    1  UNL1        0.1136
@<TRIPOS>BOND
     1    17    18    3
     2    18     7    1
     3     7     8   ar
     4     8     9   ar
     5     9    13    1
     6    13    14    1
     7    13    15    1
     8    13    16    1
     9     9    10   ar
    10    10    11   ar
    11    11    12   ar
    12    12     1    1
    13     1     2    1
    14     2     3    1
    15     3     4    1
    16     4    19    1
    17    19    20    1
    18    20    21   ar
    19    21    22   ar
    20    22    23   ar
    21    23    24    1
    22    23    25   ar
    23    25    26   ar
    24    19    27    1
    25    27    28   ar
    26    28    29   ar
    27    29    30   ar
    28    30    31   ar
    29    31    32   ar
    30     4     5    1
    31     5     6    1
    32    12     7   ar
    33     6     1    1
    34    26    20   ar
    35    32    27   ar
@<TRIPOS>MOLECULE
*****
 32 35 0 0 0
SMALL
GASTEIGER

@<TRIPOS>ATOM
      1 N          62.7349   84.4186   11.6808 N.pl3   1  UNL1       -0.3069
      2 C          63.4912   85.0410   12.8169 C.3     1  UNL1        0.0925
      3 C          63.4000   86.5186   13.0583 C.3     1  UNL1        0.0415
      4 C          62.5525   87.3739   12.1636 C.3     1  UNL1        0.0807
      5 C          61.7962   86.7514   11.0275 C.3     1  UNL1        0.0415
      6 C          61.8875   85.2737   10.7861 C.3     1  UNL1        0.0925
      7 C          62.6016   81.9810   12.5700 C.ar    1  UNL1        0.0817
      8 C          62.6928   80.5034   12.3285 C.ar    1  UNL1        0.0154
      9 C          63.0086   79.9857   10.9566 C.ar    1  UNL1        0.0722
     10 C          63.2332   80.9456    9.8261 C.ar    1  UNL1        0.0052
     11 C          63.1420   82.4232   10.0675 C.ar    1  UNL1        0.0151
     12 C          62.8262   82.9409   11.4394 C.ar    1  UNL1        0.0575
     13 C          63.0999   78.5080   10.7152 C.3     1  UNL1        0.4186
     14 F          63.1911   77.0304   10.4739 F       1  UNL1       -0.1659
     15 F          62.6948   78.2509   12.1364 F       1  UNL1       -0.1659
     16 F          63.5049   78.7651    9.2940 F       1  UNL1       -0.1659
     17 N          61.9700   83.0164   15.3138 N.1     1  UNL1       -0.1908
     18 C          62.2858   82.4987   13.9419 C.1     1  UNL1        0.1017
     19 N          62.4613   88.8515   12.4050 N.pl3   1  UNL1       -0.2872
     20 C          63.6161   89.5833   13.0221 C.ar    1  UNL1        0.0516
     21 C          64.2447   89.0662   14.2820 C.ar    1  UNL1        0.0157
     22 C          65.3996   89.7980   14.8991 C.ar    1  UNL1        0.0127
     23 C          65.9258   91.0469   14.2563 C.ar    1  UNL1        0.0578
     24 CL         67.0806   91.7788   14.8734 Cl      1  UNL1       -0.0822
     25 C          65.2972   91.5640   12.9964 C.ar    1  UNL1        0.0127
     26 C          64.1423   90.8322   12.3793 C.ar    1  UNL1        0.0157
     27 C          61.2153   89.5972   12.0293 C.ar    1  UNL1        0.0710
     28 C          59.9618   89.4165   12.8332 C.ar    1  UNL1        0.0180
     29 C          58.7158   90.1622   12.4575 C.ar    1  UNL1        0.0220
     30 C          58.7231   91.0888   11.2779 C.ar    1  UNL1        0.0990
     31 N          59.9765   91.2696   10.4740 N.ar    1  UNL1       -0.2410
     32 C          61.2226   90.5238   10.8497 C.ar    1  UNL1        0.1136
@<TRIPOS>BOND
     1    17    18    3
     2    18     7    1
     3     7     8   ar
     4     8     9   ar
     5     9    13    1
     6    13    14    1
     7    13    15    1
     8    13    16    1
     9     9    10   ar
    10    10    11   ar
    11    11    12   ar
    12    12     1    1
    13     1     2    1
    14     2     3    1
    15     3     4    1
    16     4    19    1
    17    19    20    1
    18    20    21   ar
    19    21    22   ar
    20    22    23   ar
    21    23    24    1
    22    23    25   ar
    23    25    26   ar
    24    19    27    1
    25    27    28   ar
    26    28    29   ar
    27    29    30   ar
    28    30    31   ar
    29    31    32   ar
    30     4     5    1
    31     5     6    1
    32    12     7   ar
    33     6     1    1
    34    26    20   ar
    35    32    27   ar
@<TRIPOS>MOLECULE
*****
 32 35 0 0 0
SMALL
GASTEIGER

@<TRIPOS>ATOM
      1 N          61.0680   86.9302    9.4945 N.pl3   1  UNL1       -0.3069
      2 C          60.6370   86.9988   10.9296 C.3     1  UNL1        0.0925
      3 C          61.1877   86.0217   11.9256 C.3     1  UNL1        0.0415
      4 C          62.1693   84.9759   11.4864 C.3     1  UNL1        0.0807
      5 C          62.6002   84.9072   10.0513 C.3     1  UNL1        0.0415
      6 C          62.0495   85.8844    9.0553 C.3     1  UNL1        0.0925
      7 C          60.1004   87.4359    7.1369 C.ar    1  UNL1        0.0817
      8 C          59.5497   88.4131    6.1410 C.ar    1  UNL1        0.0154
      9 C          59.4160   89.8617    6.5067 C.ar    1  UNL1        0.0722
     10 C          59.8329   90.3331    7.8683 C.ar    1  UNL1        0.0052
     11 C          60.3835   89.3559    8.8642 C.ar    1  UNL1        0.0151
     12 C          60.5173   87.9074    8.4985 C.ar    1  UNL1        0.0575
     13 C          58.8653   90.8389    5.5107 C.3     1  UNL1        0.4186
     14 F          58.3147   91.8160    4.5148 F       1  UNL1       -0.1659
     15 F          60.2604   91.2084    5.1020 F       1  UNL1       -0.1659
     16 F          57.4702   90.4693    5.9194 F       1  UNL1       -0.1659
     17 N          60.3678   84.5388    6.4056 N.1     1  UNL1       -0.1908
     18 C          60.2341   85.9874    6.7713 C.1     1  UNL1        0.1017
     19 N          62.7199   83.9987   12.4824 N.pl3   1  UNL1       -0.2872
     20 C          62.7515   82.5346   12.1581 C.ar    1  UNL1        0.0516
     21 C          62.3420   81.5283   13.1923 C.ar    1  UNL1        0.0157
     22 C          62.3735   80.0641   12.8680 C.ar    1  UNL1        0.0127
     23 C          62.8145   79.6062   11.5094 C.ar    1  UNL1        0.0578
     24 CL         62.8461   78.1420   11.1850 Cl      1  UNL1       -0.0822
     25 C          63.2240   80.6125   10.4751 C.ar    1  UNL1        0.0127
     26 C          63.1925   82.0767   10.7995 C.ar    1  UNL1        0.0157
     27 C          63.2390   84.4858   13.8027 C.ar    1  UNL1        0.0710
     28 C          64.6525   84.9745   13.9188 C.ar    1  UNL1        0.0180
     29 C          65.1716   85.4616   15.2391 C.ar    1  UNL1        0.0220
     30 C          64.2773   85.4600   16.4434 C.ar    1  UNL1        0.0990
     31 N          62.8639   84.9713   16.3273 N.ar    1  UNL1       -0.2410
     32 C          62.3448   84.4842   15.0070 C.ar    1  UNL1        0.1136
@<TRIPOS>BOND
     1    17    18    3
     2    18     7    1
     3     7     8   ar
     4     8     9   ar
     5     9    13    1
     6    13    14    1
     7    13    15    1
     8    13    16    1
     9     9    10   ar
    10    10    11   ar
    11    11    12   ar
    12    12     1    1
    13     1     2    1
    14     2     3    1
    15     3     4    1
    16     4    19    1
    17    19    20    1
    18    20    21   ar
    19    21    22   ar
    20    22    23   ar
    21    23    24    1
    22    23    25   ar
    23    25    26   ar
    24    19    27    1
    25    27    28   ar
    26    28    29   ar
    27    29    30   ar
    28    30    31   ar
    29    31    32   ar
    30     4     5    1
    31     5     6    1
    32    12     7   ar
    33     6     1    1
    34    26    20   ar
    35    32    27   ar
@<TRIPOS>MOLECULE
*****
 32 35 0 0 0
SMALL
GASTEIGER

@<TRIPOS>ATOM
      1 N          59.8730   92.7743    2.5160 N.pl3   1  UNL1       -0.3069
      2 C          59.7345   92.1701    1.1501 C.3     1  UNL1        0.0925
      3 C          59.8558   93.0359   -0.0688 C.3     1  UNL1        0.0415
      4 C          60.1157   94.5059    0.0782 C.3     1  UNL1        0.0807
      5 C          60.2542   95.1101    1.4442 C.3     1  UNL1        0.0415
      6 C          60.1329   94.2442    2.6631 C.3     1  UNL1        0.0925
      7 C          60.9625   91.2156    4.2862 C.ar    1  UNL1        0.0817
      8 C          60.8411   90.3498    5.5051 C.ar    1  UNL1        0.0154
      9 C          59.5090   90.1768    6.1726 C.ar    1  UNL1        0.0722
     10 C          58.2982   90.8697    5.6213 C.ar    1  UNL1        0.0052
     11 C          58.4196   91.7355    4.4024 C.ar    1  UNL1        0.0151
     12 C          59.7517   91.9084    3.7349 C.ar    1  UNL1        0.0575
     13 C          59.3877   89.3110    7.3915 C.3     1  UNL1        0.4186
     14 F          59.2663   88.4451    8.6103 F       1  UNL1       -0.1659
     15 F          58.5620   88.3304    6.6127 F       1  UNL1       -0.1659
     16 F          60.2134   90.2916    8.1703 F       1  UNL1       -0.1659
     17 N          63.6267   91.5615    2.9512 N.1     1  UNL1       -0.1908
     18 C          62.2946   91.3886    3.6187 C.1     1  UNL1        0.1017
     19 N          60.2370   95.3717   -1.1406 N.pl3   1  UNL1       -0.2872
     20 C          61.5924   95.7428   -1.6652 C.ar    1  UNL1        0.0516
     21 C          61.9802   95.3763   -3.0670 C.ar    1  UNL1        0.0157
     22 C          63.3357   95.7474   -3.5915 C.ar    1  UNL1        0.0127
     23 C          64.3033   96.4849   -2.7142 C.ar    1  UNL1        0.0578
     24 CL         65.6587   96.8560   -3.2387 Cl      1  UNL1       -0.0822
     25 C          63.9154   96.8513   -1.3123 C.ar    1  UNL1        0.0127
     26 C          62.5600   96.4803   -0.7878 C.ar    1  UNL1        0.0157
     27 C          59.0028   95.8664   -1.8350 C.ar    1  UNL1        0.0710
     28 C          57.7392   96.0818   -1.0559 C.ar    1  UNL1        0.0180
     29 C          56.5051   96.5765   -1.7502 C.ar    1  UNL1        0.0220
     30 C          56.5345   96.8557   -3.2237 C.ar    1  UNL1        0.0990
     31 N          57.7980   96.6403   -4.0028 N.ar    1  UNL1       -0.2410
     32 C          59.0322   96.1456   -3.3085 C.ar    1  UNL1        0.1136
@<TRIPOS>BOND
     1    17    18    3
     2    18     7    1
     3     7     8   ar
     4     8     9   ar
     5     9    13    1
     6    13    14    1
     7    13    15    1
     8    13    16    1
     9     9    10   ar
    10    10    11   ar
    11    11    12   ar
    12    12     1    1
    13     1     2    1
    14     2     3    1
    15     3     4    1
    16     4    19    1
    17    19    20    1
    18    20    21   ar
    19    21    22   ar
    20    22    23   ar
    21    23    24    1
    22    23    25   ar
    23    25    26   ar
    24    19    27    1
    25    27    28   ar
    26    28    29   ar
    27    29    30   ar
    28    30    31   ar
    29    31    32   ar
    30     4     5    1
    31     5     6    1
    32    12     7   ar
    33     6     1    1
    34    26    20   ar
    35    32    27   ar
@<TRIPOS>MOLECULE
*****
 32 35 0 0 0
SMALL
GASTEIGER

@<TRIPOS>ATOM
      1 N          60.8701   93.3653    0.7417 N.pl3   1  UNL1       -0.3069
      2 C          61.2559   92.5260   -0.4401 C.3     1  UNL1        0.0925
      3 C          61.6273   93.1822   -1.7368 C.3     1  UNL1        0.0415
      4 C          61.6129   94.6778   -1.8517 C.3     1  UNL1        0.0807
      5 C          61.2271   95.5171   -0.6699 C.3     1  UNL1        0.0415
      6 C          60.8557   94.8608    0.6269 C.3     1  UNL1        0.0925
      7 C          61.5658   92.1255    2.9164 C.ar    1  UNL1        0.0817
      8 C          61.1944   91.4693    4.2130 C.ar    1  UNL1        0.0154
      9 C          59.7559   91.3966    4.6318 C.ar    1  UNL1        0.0722
     10 C          58.6888   91.9801    3.7539 C.ar    1  UNL1        0.0052
     11 C          59.0602   92.6364    2.4573 C.ar    1  UNL1        0.0151
     12 C          60.4987   92.7090    2.0385 C.ar    1  UNL1        0.0575
     13 C          59.3845   90.7403    5.9286 C.3     1  UNL1        0.4186
     14 F          59.0132   90.0841    7.2252 F       1  UNL1       -0.1659
     15 F          60.6433   89.9263    5.8770 F       1  UNL1       -0.1659
     16 F          58.1257   91.5544    5.9801 F       1  UNL1       -0.1659
     17 N          64.4429   92.2709    2.0788 N.1     1  UNL1       -0.1908
     18 C          63.0044   92.1982    2.4976 C.1     1  UNL1        0.1017
     19 N          61.9842   95.3340   -3.1484 N.pl3   1  UNL1       -0.2872
     20 C          60.9599   95.4829   -4.2340 C.ar    1  UNL1        0.0516
     21 C          60.0902   96.7041   -4.2820 C.ar    1  UNL1        0.0157
     22 C          59.0658   96.8530   -5.3676 C.ar    1  UNL1        0.0127
     23 C          58.9112   95.7809   -6.4051 C.ar    1  UNL1        0.0578
     24 CL         57.8868   95.9298   -7.4907 Cl      1  UNL1       -0.0822
     25 C          59.7809   94.5597   -6.3571 C.ar    1  UNL1        0.0127
     26 C          60.8052   94.4108   -5.2715 C.ar    1  UNL1        0.0157
     27 C          63.3800   95.8412   -3.3595 C.ar    1  UNL1        0.0710
     28 C          63.8674   96.1409   -4.7461 C.ar    1  UNL1        0.0180
     29 C          65.2631   96.6481   -4.9572 C.ar    1  UNL1        0.0220
     30 C          66.1715   96.8556   -3.7817 C.ar    1  UNL1        0.0990
     31 N          65.6842   96.5560   -2.3952 N.ar    1  UNL1       -0.2410
     32 C          64.2884   96.0487   -2.1840 C.ar    1  UNL1        0.1136
@<TRIPOS>BOND
     1    17    18    3
     2    18     7    1
     3     7     8   ar
     4     8     9   ar
     5     9    13    1
     6    13    14    1
     7    13    15    1
     8    13    16    1
     9     9    10   ar
    10    10    11   ar
    11    11    12   ar
    12    12     1    1
    13     1     2    1
    14     2     3    1
    15     3     4    1
    16     4    19    1
    17    19    20    1
    18    20    21   ar
    19    21    22   ar
    20    22    23   ar
    21    23    24    1
    22    23    25   ar
    23    25    26   ar
    24    19    27    1
    25    27    28   ar
    26    28    29   ar
    27    29    30   ar
    28    30    31   ar
    29    31    32   ar
    30     4     5    1
    31     5     6    1
    32    12     7   ar
    33     6     1    1
    34    26    20   ar
    35    32    27   ar
