@<TRIPOS>MOLECULE
*****
 40 44 0 0 0
SMALL
GASTEIGER

@<TRIPOS>ATOM
      1 C          60.4699   88.7039    8.9025 C.ar    1  UNL1        0.1512
      2 C          60.0913   89.9726    8.1975 C.ar    1  UNL1        0.0619
      3 C          59.6100   89.6133    6.8230 C.ar    1  UNL1        0.0987
      4 S          59.6912   88.1225    6.6784 S.2     1  UNL1       -0.0618
      5 C          60.2226   87.5604    7.9636 C.ar    1  UNL1        0.1178
      6 N          59.1316   90.5758    5.7768 N.ar    1  UNL1       -0.2823
      7 C          57.7176   91.0380    5.5845 C.ar    1  UNL1        0.1831
      8 N          57.6953   91.9930    4.4280 N.ar    1  UNL1       -0.2236
      9 C          59.0956   92.1210    3.9054 C.ar    1  UNL1        0.0991
     10 C          59.6769   92.9219    2.7783 C.ar    1  UNL1        0.0207
     11 C          61.1460   92.8470    2.4848 C.ar    1  UNL1        0.0046
     12 C          62.0337   91.9711    3.3184 C.ar    1  UNL1        0.0017
     13 C          61.4523   91.1702    4.4456 C.ar    1  UNL1        0.0191
     14 C          59.9832   91.2451    4.7391 C.ar    1  UNL1        0.0835
     15 C          61.7275   93.6479    1.3576 C.ar    1  UNL1        0.0397
     16 C          60.9808   94.6120    0.4841 C.ar    1  UNL1        0.1216
     17 N          61.9495   95.1853   -0.5073 N.ar    1  UNL1       -0.1677
     18 N          63.2950   94.5755   -0.2465 N.ar    1  UNL1       -0.2494
     19 C          63.1577   93.6254    0.9061 C.ar    1  UNL1        0.0966
     20 C          64.5562   94.8650   -1.0051 C.3     1  UNL1        0.1289
     21 C          64.5126   95.7277   -2.2313 C.3     1  UNL1        0.0437
     22 C          64.5442   95.0985   -3.5926 C.3     1  UNL1        0.0742
     23 N          63.6889   93.9016   -3.8856 N.3     1  UNL1       -0.2703
     24 C          64.3245   92.5601   -4.1011 C.3     1  UNL1        0.0897
     25 C          62.1979   94.0462   -3.9631 C.3     1  UNL1        0.0897
     26 C          60.4643   86.1096    8.2582 C.2     1  UNL1        0.2518
     27 N          61.0067   85.6957    9.5940 N.am    1  UNL1       -0.3248
     28 O          60.1636   85.0726    7.2169 O.2     1  UNL1       -0.2697
     29 H          61.2041   86.3763   10.2775 H       1  UNL1        0.1453
     30 H          61.1654   84.7435    9.7874 H       1  UNL1        0.1453
     31 O          61.0022   88.5973   10.3007 O.3     1  UNL1       -0.4740
     32 C          59.8240   90.3183   11.8498 C.3     1  UNL1        0.0523
     33 C          61.0651   89.8150   11.1742 C.3     1  UNL1        0.1891
     34 C          62.3690   90.5295   11.3722 C.ar    1  UNL1        0.0278
     35 C          63.0053   91.2602   10.2271 C.ar    1  UNL1        0.0000
     36 C          64.3093   91.9747   10.4251 C.ar    1  UNL1       -0.0002
     37 C          64.9770   91.9585   11.7681 C.ar    1  UNL1        0.0008
     38 C          64.3407   91.2279   12.9132 C.ar    1  UNL1        0.0112
     39 C          63.0367   90.5133   12.7153 C.ar    1  UNL1        0.0570
     40 CL         62.4005   89.7827   13.8604 Cl      1  UNL1       -0.0825
@<TRIPOS>BOND
     1    33    32    1
     2    33    31    1
     3    31     1    1
     4     1     2   ar
     5     2     3   ar
     6     3     6    1
     7     6     7   ar
     8     7     8   ar
     9     8     9   ar
    10     9    10   ar
    11    10    11   ar
    12    11    15    1
    13    15    16   ar
    14    16    17   ar
    15    17    18   ar
    16    18    20    1
    17    20    21    1
    18    21    22    1
    19    22    23    1
    20    23    24    1
    21    23    25    1
    22    18    19   ar
    23    11    12   ar
    24    12    13   ar
    25    13    14   ar
    26     3     4   ar
    27     4     5   ar
    28     5    26    1
    29    26    27   am
    30    26    28    2
    31    33    34    1
    32    34    35   ar
    33    35    36   ar
    34    36    37   ar
    35    37    38   ar
    36    38    39   ar
    37    39    40    1
    38     5     1   ar
    39    39    34   ar
    40    14     6   ar
    41    14     9   ar
    42    19    15   ar
    43    27    29    1
    44    27    30    1
@<TRIPOS>MOLECULE
*****
 40 44 0 0 0
SMALL
GASTEIGER

@<TRIPOS>ATOM
      1 C          63.7347   87.1475   13.4815 C.ar    1  UNL1        0.1512
      2 C          63.1476   87.4840   12.1428 C.ar    1  UNL1        0.0619
      3 C          62.5734   86.2271   11.5592 C.ar    1  UNL1        0.0987
      4 S          62.8057   85.1138   12.5372 S.2     1  UNL1       -0.0618
      5 C          63.5234   85.6826   13.7252 C.ar    1  UNL1        0.1178
      6 N          61.8875   86.1050   10.2308 N.ar    1  UNL1       -0.2823
      7 C          61.6995   84.8389    9.4487 C.ar    1  UNL1        0.1831
      8 N          60.9649   85.1790    8.1859 N.ar    1  UNL1       -0.2236
      9 C          60.6989   86.6552    8.1875 C.ar    1  UNL1        0.0991
     10 C          60.0112   87.5523    7.2015 C.ar    1  UNL1        0.0207
     11 C          59.8936   89.0216    7.4793 C.ar    1  UNL1        0.0046
     12 C          60.4638   89.5939    8.7431 C.ar    1  UNL1        0.0017
     13 C          61.1515   88.6969    9.7292 C.ar    1  UNL1        0.0191
     14 C          61.2691   87.2276    9.4514 C.ar    1  UNL1        0.0835
     15 C          59.2058   89.9187    6.4932 C.ar    1  UNL1        0.0397
     16 C          57.7233   90.0565    6.3114 C.ar    1  UNL1        0.1216
     17 N          57.4811   91.0584    5.2217 N.ar    1  UNL1       -0.1677
     18 N          58.8140   91.5399    4.7300 N.ar    1  UNL1       -0.2494
     19 C          59.8799   90.8355    5.5159 C.ar    1  UNL1        0.0966
     20 C          59.0410   92.5486    3.6433 C.3     1  UNL1        0.1289
     21 C          60.4140   92.7360    3.0690 C.3     1  UNL1        0.0437
     22 C          60.5843   93.3959    1.7328 C.3     1  UNL1        0.0742
     23 N          61.8801   93.2610    0.9894 N.3     1  UNL1       -0.2703
     24 C          63.1731   93.1766    1.7452 C.3     1  UNL1        0.0897
     25 C          61.8830   93.2104   -0.5097 C.3     1  UNL1        0.0897
     26 C          63.9541   84.9203   14.9432 C.2     1  UNL1        0.2518
     27 N          64.0274   85.6105   16.2729 N.am    1  UNL1       -0.3248
     28 O          64.3115   83.4677   14.8314 O.2     1  UNL1       -0.2697
     29 H          63.7929   86.5638   16.3463 H       1  UNL1        0.1453
     30 H          64.3102   85.1101   17.0723 H       1  UNL1        0.1453
     31 O          64.4138   88.1073   14.4128 O.3     1  UNL1       -0.4740
     32 C          63.0886   89.9742   15.6410 C.3     1  UNL1        0.0523
     33 C          63.9474   89.5306   14.4940 C.3     1  UNL1        0.1891
     34 C          64.3399   90.5104   13.4281 C.ar    1  UNL1        0.0278
     35 C          63.5309   90.6131   12.1691 C.ar    1  UNL1        0.0000
     36 C          63.9234   91.5928   11.1033 C.ar    1  UNL1       -0.0002
     37 C          65.1248   92.4699   11.2964 C.ar    1  UNL1        0.0008
     38 C          65.9337   92.3672   12.5553 C.ar    1  UNL1        0.0112
     39 C          65.5413   91.3874   13.6213 C.ar    1  UNL1        0.0570
     40 CL         66.3502   91.2848   14.8802 Cl      1  UNL1       -0.0825
@<TRIPOS>BOND
     1    33    32    1
     2    33    31    1
     3    31     1    1
     4     1     2   ar
     5     2     3   ar
     6     3     6    1
     7     6     7   ar
     8     7     8   ar
     9     8     9   ar
    10     9    10   ar
    11    10    11   ar
    12    11    15    1
    13    15    16   ar
    14    16    17   ar
    15    17    18   ar
    16    18    20    1
    17    20    21    1
    18    21    22    1
    19    22    23    1
    20    23    24    1
    21    23    25    1
    22    18    19   ar
    23    11    12   ar
    24    12    13   ar
    25    13    14   ar
    26     3     4   ar
    27     4     5   ar
    28     5    26    1
    29    26    27   am
    30    26    28    2
    31    33    34    1
    32    34    35   ar
    33    35    36   ar
    34    36    37   ar
    35    37    38   ar
    36    38    39   ar
    37    39    40    1
    38     5     1   ar
    39    39    34   ar
    40    14     6   ar
    41    14     9   ar
    42    19    15   ar
    43    27    29    1
    44    27    30    1
@<TRIPOS>MOLECULE
*****
 40 44 0 0 0
SMALL
GASTEIGER

@<TRIPOS>ATOM
      1 C          62.5983   83.3164   13.0237 C.ar    1  UNL1        0.1512
      2 C          62.8815   84.7309   13.4349 C.ar    1  UNL1        0.0619
      3 C          62.7384   84.8178   14.9255 C.ar    1  UNL1        0.0987
      4 S          62.3668   83.4571   15.4356 S.2     1  UNL1       -0.0618
      5 C          62.2802   82.5292   14.2603 C.ar    1  UNL1        0.1178
      6 N          62.9328   86.0493   15.7596 N.ar    1  UNL1       -0.2823
      7 C          62.5492   86.2075   17.2010 C.ar    1  UNL1        0.1831
      8 N          62.9243   87.5947   17.6309 N.ar    1  UNL1       -0.2236
      9 C          63.5398   88.2939   16.4552 C.ar    1  UNL1        0.0991
     10 C          64.0961   89.6769   16.2883 C.ar    1  UNL1        0.0207
     11 C          64.6577   90.1047   14.9649 C.ar    1  UNL1        0.0046
     12 C          64.6629   89.1496   13.8083 C.ar    1  UNL1        0.0017
     13 C          64.1066   87.7666   13.9752 C.ar    1  UNL1        0.0191
     14 C          63.5451   87.3388   15.2986 C.ar    1  UNL1        0.0835
     15 C          65.2140   91.4877   14.7979 C.ar    1  UNL1        0.0397
     16 C          65.5800   92.4305   15.9057 C.ar    1  UNL1        0.1216
     17 N          66.0942   93.6962   15.2863 N.ar    1  UNL1       -0.1677
     18 N          66.0460   93.5357   13.7957 N.ar    1  UNL1       -0.2494
     19 C          65.5020   92.1708   13.4939 C.ar    1  UNL1        0.0966
     20 C          66.4677   94.5601   12.7845 C.3     1  UNL1        0.1289
     21 C          66.0358   94.4245   11.3544 C.3     1  UNL1        0.0437
     22 C          66.6101   93.3354   10.4977 C.3     1  UNL1        0.0742
     23 N          67.7450   93.6355    9.5638 N.3     1  UNL1       -0.2703
     24 C          67.8253   94.9712    8.8859 C.3     1  UNL1        0.0897
     25 C          68.7995   92.6000    9.3079 C.3     1  UNL1        0.0897
     26 C          61.9359   81.0701   14.3123 C.2     1  UNL1        0.2518
     27 N          60.5058   80.6324   14.1982 N.am    1  UNL1       -0.3248
     28 O          63.0219   80.0487   14.4785 O.2     1  UNL1       -0.2697
     29 H          59.7930   81.3027   14.0892 H       1  UNL1        0.1453
     30 H          60.2799   79.6747   14.2324 H       1  UNL1        0.1453
     31 O          62.6279   82.7829   11.6222 O.3     1  UNL1       -0.4740
     32 C          64.3983   83.2721    9.7846 C.3     1  UNL1        0.0523
     33 C          63.1347   83.6432   10.5027 C.3     1  UNL1        0.1891
     34 C          62.3779   84.8745   10.1014 C.ar    1  UNL1        0.0278
     35 C          61.6985   85.7107   11.1450 C.ar    1  UNL1        0.0000
     36 C          60.9417   86.9420   10.7437 C.ar    1  UNL1       -0.0002
     37 C          60.8643   87.3371    9.2988 C.ar    1  UNL1        0.0008
     38 C          61.5436   86.5009    8.2552 C.ar    1  UNL1        0.0112
     39 C          62.3005   85.2696    8.6565 C.ar    1  UNL1        0.0570
     40 CL         62.9798   84.4334    7.6129 Cl      1  UNL1       -0.0825
@<TRIPOS>BOND
     1    33    32    1
     2    33    31    1
     3    31     1    1
     4     1     2   ar
     5     2     3   ar
     6     3     6    1
     7     6     7   ar
     8     7     8   ar
     9     8     9   ar
    10     9    10   ar
    11    10    11   ar
    12    11    15    1
    13    15    16   ar
    14    16    17   ar
    15    17    18   ar
    16    18    20    1
    17    20    21    1
    18    21    22    1
    19    22    23    1
    20    23    24    1
    21    23    25    1
    22    18    19   ar
    23    11    12   ar
    24    12    13   ar
    25    13    14   ar
    26     3     4   ar
    27     4     5   ar
    28     5    26    1
    29    26    27   am
    30    26    28    2
    31    33    34    1
    32    34    35   ar
    33    35    36   ar
    34    36    37   ar
    35    37    38   ar
    36    38    39   ar
    37    39    40    1
    38     5     1   ar
    39    39    34   ar
    40    14     6   ar
    41    14     9   ar
    42    19    15   ar
    43    27    29    1
    44    27    30    1
@<TRIPOS>MOLECULE
*****
 40 44 0 0 0
SMALL
GASTEIGER

@<TRIPOS>ATOM
      1 C          60.5047   88.6803    8.9305 C.ar    1  UNL1        0.1512
      2 C          60.1116   89.9514    8.2377 C.ar    1  UNL1        0.0619
      3 C          59.6300   89.5995    6.8614 C.ar    1  UNL1        0.0987
      4 S          59.7254   88.1108    6.7035 S.2     1  UNL1       -0.0618
      5 C          60.2660   87.5428    7.9822 C.ar    1  UNL1        0.1178
      6 N          59.1392   90.5663    5.8249 N.ar    1  UNL1       -0.2823
      7 C          57.7241   91.0340    5.6553 C.ar    1  UNL1        0.1831
      8 N          57.6876   91.9920    4.5017 N.ar    1  UNL1       -0.2236
      9 C          59.0802   92.1164    3.9583 C.ar    1  UNL1        0.0991
     10 C          59.6473   92.9182    2.8245 C.ar    1  UNL1        0.0207
     11 C          61.1114   92.8389    2.5086 C.ar    1  UNL1        0.0046
     12 C          62.0086   91.9578    3.3264 C.ar    1  UNL1        0.0017
     13 C          61.4415   91.1560    4.4602 C.ar    1  UNL1        0.0191
     14 C          59.9773   91.2353    4.7762 C.ar    1  UNL1        0.0835
     15 C          61.6786   93.6407    1.3747 C.ar    1  UNL1        0.0397
     16 C          63.1013   94.0973    1.2427 C.ar    1  UNL1        0.1216
     17 N          63.2245   94.8654   -0.0397 N.ar    1  UNL1       -0.1677
     18 N          61.8779   94.8837   -0.7004 N.ar    1  UNL1       -0.2494
     19 C          60.9225   94.1267    0.1738 C.ar    1  UNL1        0.0966
     20 C          61.5452   95.5430   -2.0060 C.3     1  UNL1        0.1289
     21 C          60.2564   96.2951   -2.1594 C.3     1  UNL1        0.0437
     22 C          59.0347   95.5925   -2.6728 C.3     1  UNL1        0.0742
     23 N          57.7761   95.5836   -1.8568 N.3     1  UNL1       -0.2703
     24 C          57.2885   94.3041   -1.2442 C.3     1  UNL1        0.0897
     25 C          57.0052   96.8540   -1.6534 C.3     1  UNL1        0.0897
     26 C          60.5228   86.0919    8.2634 C.2     1  UNL1        0.2518
     27 N          61.0783   85.6722    9.5920 N.am    1  UNL1       -0.3248
     28 O          60.2239   85.0606    7.2159 O.2     1  UNL1       -0.2697
     29 H          61.2745   86.3491   10.2795 H       1  UNL1        0.1453
     30 H          61.2469   84.7200    9.7765 H       1  UNL1        0.1453
     31 O          61.0420   88.5667   10.3262 O.3     1  UNL1       -0.4740
     32 C          59.7144   90.4611   11.5088 C.3     1  UNL1        0.0523
     33 C          61.0104   89.7550   11.2411 C.3     1  UNL1        0.1891
     34 C          62.2748   90.2370   11.8883 C.ar    1  UNL1        0.0278
     35 C          62.5803   89.8630   13.3084 C.ar    1  UNL1        0.0000
     36 C          63.8447   90.3451   13.9556 C.ar    1  UNL1       -0.0002
     37 C          64.8036   91.2012   13.1826 C.ar    1  UNL1        0.0008
     38 C          64.4982   91.5752   11.7625 C.ar    1  UNL1        0.0112
     39 C          63.2337   91.0931   11.1153 C.ar    1  UNL1        0.0570
     40 CL         62.9283   91.4671    9.6952 Cl      1  UNL1       -0.0825
@<TRIPOS>BOND
     1    33    32    1
     2    33    31    1
     3    31     1    1
     4     1     2   ar
     5     2     3   ar
     6     3     6    1
     7     6     7   ar
     8     7     8   ar
     9     8     9   ar
    10     9    10   ar
    11    10    11   ar
    12    11    15    1
    13    15    16   ar
    14    16    17   ar
    15    17    18   ar
    16    18    20    1
    17    20    21    1
    18    21    22    1
    19    22    23    1
    20    23    24    1
    21    23    25    1
    22    18    19   ar
    23    11    12   ar
    24    12    13   ar
    25    13    14   ar
    26     3     4   ar
    27     4     5   ar
    28     5    26    1
    29    26    27   am
    30    26    28    2
    31    33    34    1
    32    34    35   ar
    33    35    36   ar
    34    36    37   ar
    35    37    38   ar
    36    38    39   ar
    37    39    40    1
    38     5     1   ar
    39    39    34   ar
    40    14     6   ar
    41    14     9   ar
    42    19    15   ar
    43    27    29    1
    44    27    30    1
@<TRIPOS>MOLECULE
*****
 40 44 0 0 0
SMALL
GASTEIGER

@<TRIPOS>ATOM
      1 C          60.3374   87.4535    8.7097 C.ar    1  UNL1        0.1512
      2 C          59.7558   87.8715    7.3918 C.ar    1  UNL1        0.0619
      3 C          59.6193   89.3652    7.3981 C.ar    1  UNL1        0.0987
      4 S          60.1165   89.8705    8.7201 S.2     1  UNL1       -0.0618
      5 C          60.5603   88.6890    9.5307 C.ar    1  UNL1        0.1178
      6 N          59.0802   90.2061    6.2791 N.ar    1  UNL1       -0.2823
      7 C          57.6346   90.5170    6.0272 C.ar    1  UNL1        0.1831
      8 N          57.5531   91.3868    4.8079 N.ar    1  UNL1       -0.2236
      9 C          58.9484   91.6135    4.3061 C.ar    1  UNL1        0.0991
     10 C          59.4814   92.3901    3.1388 C.ar    1  UNL1        0.0207
     11 C          60.9583   92.4370    2.8807 C.ar    1  UNL1        0.0046
     12 C          61.9021   91.7073    3.7899 C.ar    1  UNL1        0.0017
     13 C          61.3691   90.9307    4.9573 C.ar    1  UNL1        0.0191
     14 C          59.8922   90.8838    5.2154 C.ar    1  UNL1        0.0835
     15 C          61.4914   93.2136    1.7133 C.ar    1  UNL1        0.0397
     16 C          60.6777   94.0216    0.7463 C.ar    1  UNL1        0.1216
     17 N          61.6152   94.6259   -0.2566 N.ar    1  UNL1       -0.1677
     18 N          63.0083   94.1915    0.0905 N.ar    1  UNL1       -0.2494
     19 C          62.9318   93.3186    1.3080 C.ar    1  UNL1        0.0966
     20 C          64.2585   94.5644   -0.6498 C.3     1  UNL1        0.1289
     21 C          64.1758   95.4259   -1.8749 C.3     1  UNL1        0.0437
     22 C          64.5509   94.8635   -3.2139 C.3     1  UNL1        0.0742
     23 N          63.7754   93.7156   -3.7891 N.3     1  UNL1       -0.2703
     24 C          62.2769   93.7134   -3.7206 C.3     1  UNL1        0.0897
     25 C          64.4984   92.5697   -4.4327 C.3     1  UNL1        0.0897
     26 C          61.1275   88.7349   10.9186 C.2     1  UNL1        0.2518
     27 N          62.5990   88.9437   11.1210 N.am    1  UNL1       -0.3248
     28 O          60.2230   88.5721   12.1042 O.2     1  UNL1       -0.2697
     29 H          63.1926   89.0506   10.3429 H       1  UNL1        0.1453
     30 H          62.9713   88.9738   12.0319 H       1  UNL1        0.1453
     31 O          60.6425   86.0471    9.1325 O.3     1  UNL1       -0.4740
     32 C          63.0492   85.7652    8.1952 C.3     1  UNL1        0.0523
     33 C          62.0659   85.6116    9.3175 C.3     1  UNL1        0.1891
     34 C          62.5060   85.0223   10.6248 C.ar    1  UNL1        0.0278
     35 C          62.0074   85.6028   11.9149 C.ar    1  UNL1        0.0000
     36 C          62.4475   85.0136   13.2222 C.ar    1  UNL1       -0.0002
     37 C          63.3863   83.8439   13.2394 C.ar    1  UNL1        0.0008
     38 C          63.8850   83.2634   11.9494 C.ar    1  UNL1        0.0112
     39 C          63.4449   83.8526   10.6420 C.ar    1  UNL1        0.0570
     40 CL         63.9436   83.2721    9.3520 Cl      1  UNL1       -0.0825
@<TRIPOS>BOND
     1    33    32    1
     2    33    31    1
     3    31     1    1
     4     1     2   ar
     5     2     3   ar
     6     3     6    1
     7     6     7   ar
     8     7     8   ar
     9     8     9   ar
    10     9    10   ar
    11    10    11   ar
    12    11    15    1
    13    15    16   ar
    14    16    17   ar
    15    17    18   ar
    16    18    20    1
    17    20    21    1
    18    21    22    1
    19    22    23    1
    20    23    24    1
    21    23    25    1
    22    18    19   ar
    23    11    12   ar
    24    12    13   ar
    25    13    14   ar
    26     3     4   ar
    27     4     5   ar
    28     5    26    1
    29    26    27   am
    30    26    28    2
    31    33    34    1
    32    34    35   ar
    33    35    36   ar
    34    36    37   ar
    35    37    38   ar
    36    38    39   ar
    37    39    40    1
    38     5     1   ar
    39    39    34   ar
    40    14     6   ar
    41    14     9   ar
    42    19    15   ar
    43    27    29    1
    44    27    30    1
@<TRIPOS>MOLECULE
*****
 40 44 0 0 0
SMALL
GASTEIGER

@<TRIPOS>ATOM
      1 C          60.3482   87.4419    8.7232 C.ar    1  UNL1        0.1512
      2 C          59.7553   87.8561    7.4091 C.ar    1  UNL1        0.0619
      3 C          59.6178   89.3497    7.4127 C.ar    1  UNL1        0.0987
      4 S          60.1259   89.8588    8.7290 S.2     1  UNL1       -0.0618
      5 C          60.5772   88.6797    9.5389 C.ar    1  UNL1        0.1178
      6 N          59.0688   90.1873    6.2960 N.ar    1  UNL1       -0.2823
      7 C          57.6202   90.4898    6.0508 C.ar    1  UNL1        0.1831
      8 N          57.5282   91.3590    4.8317 N.ar    1  UNL1       -0.2236
      9 C          58.9198   91.5937    4.3235 C.ar    1  UNL1        0.0991
     10 C          59.4430   92.3732    3.1537 C.ar    1  UNL1        0.0207
     11 C          60.9183   92.4285    2.8888 C.ar    1  UNL1        0.0046
     12 C          61.8705   91.7044    3.7938 C.ar    1  UNL1        0.0017
     13 C          61.3473   90.9249    4.9637 C.ar    1  UNL1        0.0191
     14 C          59.8720   90.8695    5.2285 C.ar    1  UNL1        0.0835
     15 C          61.4416   93.2081    1.7189 C.ar    1  UNL1        0.0397
     16 C          62.7750   93.8904    1.6394 C.ar    1  UNL1        0.1216
     17 N          62.8808   94.5461    0.2945 N.ar    1  UNL1       -0.1677
     18 N          61.6126   94.2691   -0.4573 N.ar    1  UNL1       -0.2494
     19 C          60.7232   93.4421    0.4231 C.ar    1  UNL1        0.0966
     20 C          61.2905   94.7368   -1.8456 C.3     1  UNL1        0.1289
     21 C          60.3108   93.9727   -2.6860 C.3     1  UNL1        0.0437
     22 C          58.8373   94.1659   -2.4825 C.3     1  UNL1        0.0742
     23 N          57.9213   92.9783   -2.4600 N.3     1  UNL1       -0.2703
     24 C          57.7948   92.1055   -3.6734 C.3     1  UNL1        0.0897
     25 C          57.1318   92.6635   -1.2241 C.3     1  UNL1        0.0897
     26 C          61.1561   88.7296   10.9219 C.2     1  UNL1        0.2518
     27 N          62.6310   88.9269   11.1110 N.am    1  UNL1       -0.3248
     28 O          60.2600   88.5822   12.1158 O.2     1  UNL1       -0.2697
     29 H          63.2191   89.0236   10.3275 H       1  UNL1        0.1453
     30 H          63.0109   88.9597   12.0187 H       1  UNL1        0.1453
     31 O          60.6577   86.0368    9.1471 O.3     1  UNL1       -0.4740
     32 C          63.0460   85.7488    8.1656 C.3     1  UNL1        0.0523
     33 C          62.0833   85.5981    9.3060 C.3     1  UNL1        0.1891
     34 C          62.5462   85.0088   10.6054 C.ar    1  UNL1        0.0278
     35 C          62.0642   85.5845   11.9040 C.ar    1  UNL1        0.0000
     36 C          62.5271   84.9952   13.2034 C.ar    1  UNL1       -0.0002
     37 C          63.4720   83.8302   13.2042 C.ar    1  UNL1        0.0008
     38 C          63.9540   83.2546   11.9057 C.ar    1  UNL1        0.0112
     39 C          63.4911   83.8439   10.6062 C.ar    1  UNL1        0.0570
     40 CL         63.9731   83.2682    9.3077 Cl      1  UNL1       -0.0825
@<TRIPOS>BOND
     1    33    32    1
     2    33    31    1
     3    31     1    1
     4     1     2   ar
     5     2     3   ar
     6     3     6    1
     7     6     7   ar
     8     7     8   ar
     9     8     9   ar
    10     9    10   ar
    11    10    11   ar
    12    11    15    1
    13    15    16   ar
    14    16    17   ar
    15    17    18   ar
    16    18    20    1
    17    20    21    1
    18    21    22    1
    19    22    23    1
    20    23    24    1
    21    23    25    1
    22    18    19   ar
    23    11    12   ar
    24    12    13   ar
    25    13    14   ar
    26     3     4   ar
    27     4     5   ar
    28     5    26    1
    29    26    27   am
    30    26    28    2
    31    33    34    1
    32    34    35   ar
    33    35    36   ar
    34    36    37   ar
    35    37    38   ar
    36    38    39   ar
    37    39    40    1
    38     5     1   ar
    39    39    34   ar
    40    14     6   ar
    41    14     9   ar
    42    19    15   ar
    43    27    29    1
    44    27    30    1
@<TRIPOS>MOLECULE
*****
 40 44 0 0 0
SMALL
GASTEIGER

@<TRIPOS>ATOM
      1 C          63.0810   86.5038   13.0039 C.ar    1  UNL1        0.1512
      2 C          62.2748   85.9245   11.8794 C.ar    1  UNL1        0.0619
      3 C          61.9228   87.0390   10.9392 C.ar    1  UNL1        0.0987
      4 S          62.5114   88.3072   11.4826 S.2     1  UNL1       -0.0618
      5 C          63.2272   87.9764   12.7586 C.ar    1  UNL1        0.1178
      6 N          61.1226   86.9083    9.6772 N.ar    1  UNL1       -0.2823
      7 C          60.5952   85.6300    9.0960 C.ar    1  UNL1        0.1831
      8 N          59.8560   85.9647    7.8344 N.ar    1  UNL1       -0.2236
      9 C          59.9266   87.4498    7.6359 C.ar    1  UNL1        0.0991
     10 C          59.3792   88.3464    6.5652 C.ar    1  UNL1        0.0207
     11 C          59.6146   89.8262    6.6335 C.ar    1  UNL1        0.0046
     12 C          60.3974   90.4094    7.7724 C.ar    1  UNL1        0.0017
     13 C          60.9448   89.5128    8.8430 C.ar    1  UNL1        0.0191
     14 C          60.7094   88.0330    8.7748 C.ar    1  UNL1        0.0835
     15 C          59.0672   90.7229    5.5628 C.ar    1  UNL1        0.0397
     16 C          57.6195   91.0431    5.3358 C.ar    1  UNL1        0.1216
     17 N          57.5290   91.9749    4.1638 N.ar    1  UNL1       -0.1677
     18 N          58.9208   92.2307    3.6665 N.ar    1  UNL1       -0.2494
     19 C          59.8715   91.4569    4.5311 C.ar    1  UNL1        0.0966
     20 C          59.2961   93.1065    2.5079 C.3     1  UNL1        0.1289
     21 C          60.7356   93.4498    2.2627 C.3     1  UNL1        0.0437
     22 C          61.6255   92.4806    1.5426 C.3     1  UNL1        0.0742
     23 N          63.0373   92.2729    2.0048 N.3     1  UNL1       -0.2703
     24 C          63.3520   91.1853    2.9888 C.3     1  UNL1        0.0897
     25 C          64.1344   93.1527    1.4831 C.3     1  UNL1        0.0897
     26 C          63.9605   88.9478   13.6354 C.2     1  UNL1        0.2518
     27 N          64.4445   88.5189   14.9889 N.am    1  UNL1       -0.3248
     28 O          64.2099   90.3480   13.1588 O.2     1  UNL1       -0.2697
     29 H          64.2808   87.5999   15.3017 H       1  UNL1        0.1453
     30 H          64.9257   89.1564   15.5644 H       1  UNL1        0.1453
     31 O          63.6424   85.7440   14.1689 O.3     1  UNL1       -0.4740
     32 C          65.8376   84.4229   14.5996 C.3     1  UNL1        0.0523
     33 C          64.4983   84.5349   13.9336 C.3     1  UNL1        0.1891
     34 C          64.0148   83.4377   13.0322 C.ar    1  UNL1        0.0278
     35 C          64.6109   83.2723   11.6657 C.ar    1  UNL1        0.0000
     36 C          64.1274   82.1751   10.7643 C.ar    1  UNL1       -0.0002
     37 C          63.0478   81.2434   11.2295 C.ar    1  UNL1        0.0008
     38 C          62.4517   81.4088   12.5959 C.ar    1  UNL1        0.0112
     39 C          62.9352   82.5060   13.4973 C.ar    1  UNL1        0.0570
     40 CL         62.3391   82.6714   14.8638 Cl      1  UNL1       -0.0825
@<TRIPOS>BOND
     1    33    32    1
     2    33    31    1
     3    31     1    1
     4     1     2   ar
     5     2     3   ar
     6     3     6    1
     7     6     7   ar
     8     7     8   ar
     9     8     9   ar
    10     9    10   ar
    11    10    11   ar
    12    11    15    1
    13    15    16   ar
    14    16    17   ar
    15    17    18   ar
    16    18    20    1
    17    20    21    1
    18    21    22    1
    19    22    23    1
    20    23    24    1
    21    23    25    1
    22    18    19   ar
    23    11    12   ar
    24    12    13   ar
    25    13    14   ar
    26     3     4   ar
    27     4     5   ar
    28     5    26    1
    29    26    27   am
    30    26    28    2
    31    33    34    1
    32    34    35   ar
    33    35    36   ar
    34    36    37   ar
    35    37    38   ar
    36    38    39   ar
    37    39    40    1
    38     5     1   ar
    39    39    34   ar
    40    14     6   ar
    41    14     9   ar
    42    19    15   ar
    43    27    29    1
    44    27    30    1
@<TRIPOS>MOLECULE
*****
 40 44 0 0 0
SMALL
GASTEIGER

@<TRIPOS>ATOM
      1 C          61.2605   88.4313    9.4973 C.ar    1  UNL1        0.1512
      2 C          60.5083   89.5516    8.8420 C.ar    1  UNL1        0.0619
      3 C          59.8766   89.0166    7.5912 C.ar    1  UNL1        0.0987
      4 S          60.2382   87.5656    7.4733 S.2     1  UNL1       -0.0618
      5 C          61.0935   87.2039    8.6513 C.ar    1  UNL1        0.1178
      6 N          59.0315   89.7957    6.6274 N.ar    1  UNL1       -0.2823
      7 C          57.5322   89.8303    6.5978 C.ar    1  UNL1        0.1831
      8 N          57.1115   90.7330    5.4761 N.ar    1  UNL1       -0.2236
      9 C          58.3508   91.2564    4.8126 C.ar    1  UNL1        0.0991
     10 C          58.5521   92.1856    3.6524 C.ar    1  UNL1        0.0207
     11 C          59.9400   92.5355    3.2038 C.ar    1  UNL1        0.0046
     12 C          61.1266   91.9562    3.9154 C.ar    1  UNL1        0.0017
     13 C          60.9253   91.0270    5.0756 C.ar    1  UNL1        0.0191
     14 C          59.5374   90.6771    5.5242 C.ar    1  UNL1        0.0835
     15 C          60.1413   93.4647    2.0436 C.ar    1  UNL1        0.0397
     16 C          60.7459   94.8360    2.1068 C.ar    1  UNL1        0.1216
     17 N          60.7516   95.4045    0.7188 N.ar    1  UNL1       -0.1677
     18 N          60.1505   94.3846   -0.2024 N.ar    1  UNL1       -0.2494
     19 C          59.7733   93.1858    0.6164 C.ar    1  UNL1        0.0966
     20 C          59.9600   94.5368   -1.6824 C.3     1  UNL1        0.1289
     21 C          58.6380   94.2017   -2.3069 C.3     1  UNL1        0.0437
     22 C          57.3696   94.7343   -1.7089 C.3     1  UNL1        0.0742
     23 N          56.1444   94.8853   -2.5610 N.3     1  UNL1       -0.2703
     24 C          54.7835   94.8475   -1.9312 C.3     1  UNL1        0.0897
     25 C          56.2800   95.0741   -4.0428 C.3     1  UNL1        0.0897
     26 C          61.6790   85.8520    8.9338 C.2     1  UNL1        0.2518
     27 N          62.4008   85.1062    7.8509 N.am    1  UNL1       -0.3248
     28 O          61.5426   85.2461   10.2992 O.2     1  UNL1       -0.2697
     29 H          62.4903   85.5039    6.9548 H       1  UNL1        0.1453
     30 H          62.7851   84.2189    8.0363 H       1  UNL1        0.1453
     31 O          62.0422   88.5224   10.7741 O.3     1  UNL1       -0.4740
     32 C          60.6743   90.0922   12.3280 C.3     1  UNL1        0.0523
     33 C          61.9541   89.7573   11.6210 C.3     1  UNL1        0.1891
     34 C          63.1459   90.6574   11.7608 C.ar    1  UNL1        0.0278
     35 C          63.6026   91.4837   10.5952 C.ar    1  UNL1        0.0000
     36 C          64.7943   92.3838   10.7350 C.ar    1  UNL1       -0.0002
     37 C          65.5294   92.4576   12.0404 C.ar    1  UNL1        0.0008
     38 C          65.0728   91.6313   13.2060 C.ar    1  UNL1        0.0112
     39 C          63.8810   90.7312   13.0662 C.ar    1  UNL1        0.0570
     40 CL         63.4243   89.9049   14.2318 Cl      1  UNL1       -0.0825
@<TRIPOS>BOND
     1    33    32    1
     2    33    31    1
     3    31     1    1
     4     1     2   ar
     5     2     3   ar
     6     3     6    1
     7     6     7   ar
     8     7     8   ar
     9     8     9   ar
    10     9    10   ar
    11    10    11   ar
    12    11    15    1
    13    15    16   ar
    14    16    17   ar
    15    17    18   ar
    16    18    20    1
    17    20    21    1
    18    21    22    1
    19    22    23    1
    20    23    24    1
    21    23    25    1
    22    18    19   ar
    23    11    12   ar
    24    12    13   ar
    25    13    14   ar
    26     3     4   ar
    27     4     5   ar
    28     5    26    1
    29    26    27   am
    30    26    28    2
    31    33    34    1
    32    34    35   ar
    33    35    36   ar
    34    36    37   ar
    35    37    38   ar
    36    38    39   ar
    37    39    40    1
    38     5     1   ar
    39    39    34   ar
    40    14     6   ar
    41    14     9   ar
    42    19    15   ar
    43    27    29    1
    44    27    30    1
@<TRIPOS>MOLECULE
*****
 40 44 0 0 0
SMALL
GASTEIGER

@<TRIPOS>ATOM
      1 C          62.7799   84.5279   12.4996 C.ar    1  UNL1        0.1512
      2 C          62.1711   85.5956   11.6397 C.ar    1  UNL1        0.0619
      3 C          62.6573   86.9246   12.1368 C.ar    1  UNL1        0.0987
      4 S          63.5667   86.6785   13.3040 S.2     1  UNL1       -0.0618
      5 C          63.6424   85.1973   13.5283 C.ar    1  UNL1        0.1178
      6 N          62.2974   88.2646   11.5667 N.ar    1  UNL1       -0.2823
      7 C          62.6365   89.5974   12.1657 C.ar    1  UNL1        0.1831
      8 N          62.0839   90.6635   11.2668 N.ar    1  UNL1       -0.2236
      9 C          61.4033   89.9896   10.1123 C.ar    1  UNL1        0.0991
     10 C          60.6805   90.5345    8.9163 C.ar    1  UNL1        0.0207
     11 C          60.0897   89.5968    7.9056 C.ar    1  UNL1        0.0046
     12 C          60.2217   88.1141    8.0910 C.ar    1  UNL1        0.0017
     13 C          60.9445   87.5692    9.2871 C.ar    1  UNL1        0.0191
     14 C          61.5353   88.5070   10.2977 C.ar    1  UNL1        0.0835
     15 C          59.3668   90.1416    6.7095 C.ar    1  UNL1        0.0397
     16 C          57.9050   89.9812    6.4141 C.ar    1  UNL1        0.1216
     17 N          57.6136   90.6830    5.1208 N.ar    1  UNL1       -0.1677
     18 N          58.8955   91.2771    4.6168 N.ar    1  UNL1       -0.2494
     19 C          59.9790   90.9425    5.5987 C.ar    1  UNL1        0.0966
     20 C          59.0641   92.0671    3.3529 C.3     1  UNL1        0.1289
     21 C          60.1954   93.0437    3.2242 C.3     1  UNL1        0.0437
     22 C          61.1366   92.9519    2.0599 C.3     1  UNL1        0.0742
     23 N          62.5968   92.7008    2.2938 N.3     1  UNL1       -0.2703
     24 C          63.6103   93.7247    1.8758 C.3     1  UNL1        0.0897
     25 C          63.0436   91.4261    2.9458 C.3     1  UNL1        0.0897
     26 C          64.4406   84.5066   14.5942 C.2     1  UNL1        0.2518
     27 N          65.8381   84.9598   14.8969 N.am    1  UNL1       -0.3248
     28 O          63.8413   83.3627   15.3573 O.2     1  UNL1       -0.2697
     29 H          66.2315   85.7106   14.3960 H       1  UNL1        0.1453
     30 H          66.3619   84.5065   15.5964 H       1  UNL1        0.1453
     31 O          62.5641   83.0506   12.3562 O.3     1  UNL1       -0.4740
     32 C          64.6176   82.8956   10.7722 C.3     1  UNL1        0.0523
     33 C          63.4337   82.2519   11.4310 C.3     1  UNL1        0.1891
     34 C          63.1193   80.8096   11.1647 C.ar    1  UNL1        0.0278
     35 C          63.1174   80.2898    9.7576 C.ar    1  UNL1        0.0000
     36 C          62.8030   78.8475    9.4913 C.ar    1  UNL1       -0.0002
     37 C          62.4907   77.9250   10.6321 C.ar    1  UNL1        0.0008
     38 C          62.4926   78.4447   12.0391 C.ar    1  UNL1        0.0112
     39 C          62.8070   79.8871   12.3055 C.ar    1  UNL1        0.0570
     40 CL         62.8089   80.4068   13.7124 Cl      1  UNL1       -0.0825
@<TRIPOS>BOND
     1    33    32    1
     2    33    31    1
     3    31     1    1
     4     1     2   ar
     5     2     3   ar
     6     3     6    1
     7     6     7   ar
     8     7     8   ar
     9     8     9   ar
    10     9    10   ar
    11    10    11   ar
    12    11    15    1
    13    15    16   ar
    14    16    17   ar
    15    17    18   ar
    16    18    20    1
    17    20    21    1
    18    21    22    1
    19    22    23    1
    20    23    24    1
    21    23    25    1
    22    18    19   ar
    23    11    12   ar
    24    12    13   ar
    25    13    14   ar
    26     3     4   ar
    27     4     5   ar
    28     5    26    1
    29    26    27   am
    30    26    28    2
    31    33    34    1
    32    34    35   ar
    33    35    36   ar
    34    36    37   ar
    35    37    38   ar
    36    38    39   ar
    37    39    40    1
    38     5     1   ar
    39    39    34   ar
    40    14     6   ar
    41    14     9   ar
    42    19    15   ar
    43    27    29    1
    44    27    30    1
