@<TRIPOS>MOLECULE
*****
 40 45 0 0 0
SMALL
GASTEIGER

@<TRIPOS>ATOM
      1 N          63.5151   91.2018   13.2762 N.3     1  UNL1       -0.2641
      2 C          64.7768   91.6646   12.6100 C.3     1  UNL1        0.0981
      3 C          64.7942   91.9205   11.1320 C.3     1  UNL1        0.0224
      4 C          66.0558   92.3833   10.4658 C.3     1  UNL1        0.0065
      5 C          67.3002   92.5903   11.2774 C.3     1  UNL1        0.0277
      6 C          67.2829   92.3344   12.7553 C.ar    1  UNL1       -0.0073
      7 C          68.5272   92.5413   13.5669 C.ar    1  UNL1       -0.0015
      8 C          68.5099   92.2855   15.0449 C.ar    1  UNL1        0.0203
      9 C          67.2482   91.8226   15.7111 C.ar    1  UNL1        0.0985
     10 N          66.0039   91.6157   14.8995 N.ar    1  UNL1       -0.2471
     11 C          66.0212   91.8715   13.4216 C.ar    1  UNL1        0.0695
     12 C          62.2474   91.0849   12.4830 C.3     1  UNL1        0.0888
     13 C          60.2860   86.2463    8.0119 C.ar    1  UNL1       -0.0003
     14 C          59.6226   87.5432    7.6542 C.ar    1  UNL1       -0.0003
     15 C          59.8823   88.7703    8.4769 C.ar    1  UNL1       -0.0045
     16 C          60.8052   88.7005    9.6573 C.ar    1  UNL1       -0.0234
     17 C          61.4686   87.4036   10.0150 C.ar    1  UNL1       -0.0103
     18 C          61.2090   86.1765    9.1923 C.ar    1  UNL1       -0.0032
     19 C          62.3916   87.3338   11.1954 C.3     1  UNL1        0.0953
     20 N          62.6512   88.5609   12.0180 N.3     1  UNL1       -0.2934
     21 C          61.9878   89.8578   11.6603 C.3     1  UNL1        0.0748
     22 C          61.0648   89.9276   10.4800 C.3     1  UNL1        0.0432
     23 H          63.6572   88.7271   11.9896 H       1  UNL1        0.1236
     24 C          63.5211   90.8557   14.7358 C.3     1  UNL1        0.0994
     25 C          63.6187   89.4222   15.1663 C.ar    1  UNL1       -0.0062
     26 C          63.0155   88.9877   16.4692 C.ar    1  UNL1       -0.0032
     27 C          63.1131   87.5541   16.8998 C.ar    1  UNL1       -0.0032
     28 C          63.8138   86.5551   16.0275 C.ar    1  UNL1       -0.0064
     29 C          64.4169   86.9895   14.7246 C.ar    1  UNL1       -0.0032
     30 C          64.3194   88.4231   14.2940 C.ar    1  UNL1       -0.0032
     31 C          63.9113   85.1215   16.4580 C.3     1  UNL1        0.0959
     32 N          64.3577   84.0739   15.4817 N.3     1  UNL1       -0.2900
     33 H          65.0418   83.4926   15.9658 H       1  UNL1        0.1239
     34 C          63.3536   83.1425   14.8698 C.3     1  UNL1        0.0960
     35 C          63.4720   82.7559   13.4253 C.ar    1  UNL1       -0.0033
     36 C          64.2661   83.6109   12.4828 C.ar    1  UNL1        0.0178
     37 C          64.3845   83.2243   11.0383 C.ar    1  UNL1        0.0986
     38 N          63.7087   81.9829   10.5363 N.ar    1  UNL1       -0.2423
     39 C          62.9144   81.1279   11.4788 C.ar    1  UNL1        0.0986
     40 C          62.7961   81.5144   12.9233 C.ar    1  UNL1        0.0178
@<TRIPOS>BOND
     1    13    14   ar
     2    14    15   ar
     3    15    16   ar
     4    16    17   ar
     5    17    18   ar
     6    17    19    1
     7    19    20    1
     8    20    21    1
     9    21    12    1
    10    12     1    1
    11     1    24    1
    12    24    25    1
    13    25    26   ar
    14    26    27   ar
    15    27    28   ar
    16    28    31    1
    17    31    32    1
    18    32    34    1
    19    34    35    1
    20    35    36   ar
    21    36    37   ar
    22    37    38   ar
    23    38    39   ar
    24    39    40   ar
    25    28    29   ar
    26    29    30   ar
    27     2     1    1
    28     2     3    1
    29     3     4    1
    30     4     5    1
    31     5     6    1
    32     6     7   ar
    33     7     8   ar
    34     8     9   ar
    35     9    10   ar
    36    10    11   ar
    37    21    22    1
    38    18    13   ar
    39    30    25   ar
    40    11     2    1
    41    22    16    1
    42    40    35   ar
    43    11     6   ar
    44    20    23    1
    45    32    33    1
@<TRIPOS>MOLECULE
*****
 40 45 0 0 0
SMALL
GASTEIGER

@<TRIPOS>ATOM
      1 N          63.8361   90.6630   14.3344 N.3     1  UNL1       -0.2641
      2 C          65.2304   91.1568   14.0852 C.3     1  UNL1        0.0981
      3 C          66.2811   91.0029   15.1447 C.3     1  UNL1        0.0224
      4 C          67.6754   91.4967   14.8956 C.3     1  UNL1        0.0065
      5 C          68.0190   92.1445   13.5870 C.3     1  UNL1        0.0277
      6 C          66.9684   92.2984   12.5276 C.ar    1  UNL1       -0.0073
      7 C          67.3121   92.9462   11.2191 C.ar    1  UNL1       -0.0015
      8 C          66.2613   93.1001   10.1596 C.ar    1  UNL1        0.0203
      9 C          64.8671   92.6063   10.4087 C.ar    1  UNL1        0.0985
     10 N          64.5234   91.9585   11.7173 N.ar    1  UNL1       -0.2471
     11 C          65.5741   91.8046   12.7767 C.ar    1  UNL1        0.0695
     12 C          62.7699   90.8735   13.3004 C.3     1  UNL1        0.0888
     13 C          60.4400   86.7286    8.3363 C.ar    1  UNL1       -0.0003
     14 C          59.7886   88.0729    8.1995 C.ar    1  UNL1       -0.0003
     15 C          60.1244   89.1707    9.1650 C.ar    1  UNL1       -0.0045
     16 C          61.1114   88.9243   10.2673 C.ar    1  UNL1       -0.0234
     17 C          61.7628   87.5800   10.4041 C.ar    1  UNL1       -0.0103
     18 C          61.4271   86.4822    9.4386 C.ar    1  UNL1       -0.0032
     19 C          62.7499   87.3336   11.5064 C.3     1  UNL1        0.0953
     20 N          63.0856   88.4314   12.4718 N.3     1  UNL1       -0.2934
     21 C          62.4342   89.7757   12.3350 C.3     1  UNL1        0.0748
     22 C          61.4472   90.0221   11.2328 C.3     1  UNL1        0.0432
     23 H          64.0920   88.5838   12.4060 H       1  UNL1        0.1236
     24 C          63.5080   89.9586   15.6174 C.3     1  UNL1        0.0994
     25 C          63.6396   88.4673   15.7092 C.ar    1  UNL1       -0.0062
     26 C          64.4745   87.7250   14.7082 C.ar    1  UNL1       -0.0032
     27 C          64.6061   86.2336   14.7999 C.ar    1  UNL1       -0.0032
     28 C          63.9028   85.4845   15.8927 C.ar    1  UNL1       -0.0064
     29 C          63.0679   86.2267   16.8937 C.ar    1  UNL1       -0.0032
     30 C          62.9363   87.7181   16.8019 C.ar    1  UNL1       -0.0032
     31 C          64.0344   83.9931   15.9845 C.3     1  UNL1        0.0959
     32 N          62.9116   83.1113   15.5243 N.3     1  UNL1       -0.2900
     33 H          62.1926   83.1489   16.2469 H       1  UNL1        0.1239
     34 C          62.2277   83.3880   14.2182 C.3     1  UNL1        0.0960
     35 C          62.8575   82.9407   12.9324 C.ar    1  UNL1       -0.0033
     36 C          63.7845   83.8587   12.1922 C.ar    1  UNL1        0.0178
     37 C          64.4143   83.4114   10.9064 C.ar    1  UNL1        0.0986
     38 N          64.1172   82.0461   10.3608 N.ar    1  UNL1       -0.2423
     39 C          63.1901   81.1281   11.1010 C.ar    1  UNL1        0.0986
     40 C          62.5603   81.5753   12.3868 C.ar    1  UNL1        0.0178
@<TRIPOS>BOND
     1    13    14   ar
     2    14    15   ar
     3    15    16   ar
     4    16    17   ar
     5    17    18   ar
     6    17    19    1
     7    19    20    1
     8    20    21    1
     9    21    12    1
    10    12     1    1
    11     1    24    1
    12    24    25    1
    13    25    26   ar
    14    26    27   ar
    15    27    28   ar
    16    28    31    1
    17    31    32    1
    18    32    34    1
    19    34    35    1
    20    35    36   ar
    21    36    37   ar
    22    37    38   ar
    23    38    39   ar
    24    39    40   ar
    25    28    29   ar
    26    29    30   ar
    27     2     1    1
    28     2     3    1
    29     3     4    1
    30     4     5    1
    31     5     6    1
    32     6     7   ar
    33     7     8   ar
    34     8     9   ar
    35     9    10   ar
    36    10    11   ar
    37    21    22    1
    38    18    13   ar
    39    30    25   ar
    40    11     2    1
    41    22    16    1
    42    40    35   ar
    43    11     6   ar
    44    20    23    1
    45    32    33    1
@<TRIPOS>MOLECULE
*****
 40 45 0 0 0
SMALL
GASTEIGER

@<TRIPOS>ATOM
      1 N          61.9489   87.4916   11.2126 N.3     1  UNL1       -0.2641
      2 C          61.0481   87.2150   10.0455 C.3     1  UNL1        0.0981
      3 C          59.6790   87.8257    9.9935 C.3     1  UNL1        0.0224
      4 C          58.7783   87.5491    8.8265 C.3     1  UNL1        0.0065
      5 C          59.2466   86.6619    7.7113 C.3     1  UNL1        0.0277
      6 C          60.6156   86.0512    7.7633 C.ar    1  UNL1       -0.0073
      7 C          61.0839   85.1639    6.6482 C.ar    1  UNL1       -0.0015
      8 C          62.4530   84.5533    6.7002 C.ar    1  UNL1        0.0203
      9 C          63.3538   84.8299    7.8673 C.ar    1  UNL1        0.0985
     10 N          62.8855   85.7171    8.9824 N.ar    1  UNL1       -0.2471
     11 C          61.5164   86.3278    8.9304 C.ar    1  UNL1        0.0695
     12 C          63.0846   86.5613   11.5206 C.3     1  UNL1        0.0888
     13 C          62.1962   80.1035   13.7020 C.ar    1  UNL1       -0.0003
     14 C          62.6099   80.0823   12.2604 C.ar    1  UNL1       -0.0003
     15 C          62.8703   81.3696   11.5357 C.ar    1  UNL1       -0.0045
     16 C          62.7170   82.6781   12.2528 C.ar    1  UNL1       -0.0234
     17 C          62.3033   82.6994   13.6944 C.ar    1  UNL1       -0.0103
     18 C          62.0429   81.4122   14.4191 C.ar    1  UNL1       -0.0032
     19 C          62.1500   84.0081   14.4115 C.3     1  UNL1        0.0953
     20 N          62.4104   85.2953   13.6868 N.3     1  UNL1       -0.2934
     21 C          62.8241   85.2740   12.2452 C.3     1  UNL1        0.0748
     22 C          62.9774   83.9655   11.5281 C.3     1  UNL1        0.0432
     23 H          63.1500   85.7767   14.1983 H       1  UNL1        0.1236
     24 C          61.7141   88.6986   12.0717 C.3     1  UNL1        0.0994
     25 C          62.8129   89.6988   12.2764 C.ar    1  UNL1       -0.0062
     26 C          63.6255   89.6729   13.5371 C.ar    1  UNL1       -0.0032
     27 C          64.7244   90.6732   13.7418 C.ar    1  UNL1       -0.0032
     28 C          65.0108   91.6993   12.6858 C.ar    1  UNL1       -0.0064
     29 C          64.1983   91.7252   11.4252 C.ar    1  UNL1       -0.0032
     30 C          63.0994   90.7249   11.2205 C.ar    1  UNL1       -0.0032
     31 C          66.1097   92.6995   12.8905 C.3     1  UNL1        0.0959
     32 N          67.3477   92.6370   12.0458 N.3     1  UNL1       -0.2900
     33 H          67.7638   91.7187   12.2008 H       1  UNL1        0.1239
     34 C          67.2525   92.8242   10.5606 C.3     1  UNL1        0.0960
     35 C          66.9001   94.1681    9.9951 C.ar    1  UNL1       -0.0033
     36 C          67.6110   94.6791    8.7771 C.ar    1  UNL1        0.0178
     37 C          67.2587   96.0230    8.2116 C.ar    1  UNL1        0.0986
     38 N          66.1954   96.8558    8.8641 N.ar    1  UNL1       -0.2423
     39 C          65.4844   96.3448   10.0821 C.ar    1  UNL1        0.0986
     40 C          65.8368   95.0009   10.6476 C.ar    1  UNL1        0.0178
@<TRIPOS>BOND
     1    13    14   ar
     2    14    15   ar
     3    15    16   ar
     4    16    17   ar
     5    17    18   ar
     6    17    19    1
     7    19    20    1
     8    20    21    1
     9    21    12    1
    10    12     1    1
    11     1    24    1
    12    24    25    1
    13    25    26   ar
    14    26    27   ar
    15    27    28   ar
    16    28    31    1
    17    31    32    1
    18    32    34    1
    19    34    35    1
    20    35    36   ar
    21    36    37   ar
    22    37    38   ar
    23    38    39   ar
    24    39    40   ar
    25    28    29   ar
    26    29    30   ar
    27     2     1    1
    28     2     3    1
    29     3     4    1
    30     4     5    1
    31     5     6    1
    32     6     7   ar
    33     7     8   ar
    34     8     9   ar
    35     9    10   ar
    36    10    11   ar
    37    21    22    1
    38    18    13   ar
    39    30    25   ar
    40    11     2    1
    41    22    16    1
    42    40    35   ar
    43    11     6   ar
    44    20    23    1
    45    32    33    1
@<TRIPOS>MOLECULE
*****
 40 45 0 0 0
SMALL
GASTEIGER

@<TRIPOS>ATOM
      1 N          61.6818   87.1923   11.5548 N.3     1  UNL1       -0.2641
      2 C          62.3645   86.0166   10.9211 C.3     1  UNL1        0.0981
      3 C          62.6323   86.0107    9.4452 C.3     1  UNL1        0.0224
      4 C          63.3151   84.8350    8.8115 C.3     1  UNL1        0.0065
      5 C          63.7301   83.6652    9.6537 C.3     1  UNL1        0.0277
      6 C          63.4623   83.6711   11.1296 C.ar    1  UNL1       -0.0073
      7 C          63.8773   82.5013   11.9718 C.ar    1  UNL1       -0.0015
      8 C          63.6095   82.5072   13.4478 C.ar    1  UNL1        0.0203
      9 C          62.9267   83.6829   14.0814 C.ar    1  UNL1        0.0985
     10 N          62.5117   84.8527   13.2392 N.ar    1  UNL1       -0.2471
     11 C          62.7795   84.8468   11.7633 C.ar    1  UNL1        0.0695
     12 C          62.4125   88.0314   12.5608 C.3     1  UNL1        0.0888
     13 C          66.0454   93.8148   11.7830 C.ar    1  UNL1       -0.0003
     14 C          66.2777   93.2707   13.1614 C.ar    1  UNL1       -0.0003
     15 C          65.5976   92.0051   13.5926 C.ar    1  UNL1       -0.0045
     16 C          64.6852   91.2838   12.6455 C.ar    1  UNL1       -0.0234
     17 C          64.4528   91.8280   11.2671 C.ar    1  UNL1       -0.0103
     18 C          65.1329   93.0935   10.8359 C.ar    1  UNL1       -0.0032
     19 C          63.5403   91.1066   10.3200 C.3     1  UNL1        0.0953
     20 N          62.8602   89.8411   10.7512 N.3     1  UNL1       -0.2934
     21 C          63.0926   89.2969   12.1295 C.3     1  UNL1        0.0748
     22 C          64.0050   90.0182   13.0767 C.3     1  UNL1        0.0432
     23 H          63.1472   89.1144   10.0955 H       1  UNL1        0.1236
     24 C          60.2682   87.5290   11.1825 C.3     1  UNL1        0.0994
     25 C          59.9690   88.1319    9.8420 C.ar    1  UNL1       -0.0062
     26 C          59.3941   87.2811    8.7484 C.ar    1  UNL1       -0.0032
     27 C          59.0949   87.8840    7.4079 C.ar    1  UNL1       -0.0032
     28 C          59.3705   89.3376    7.1609 C.ar    1  UNL1       -0.0064
     29 C          59.9453   90.1883    8.2544 C.ar    1  UNL1       -0.0032
     30 C          60.2446   89.5855    9.5950 C.ar    1  UNL1       -0.0032
     31 C          59.0713   89.9404    5.8204 C.3     1  UNL1        0.0959
     32 N          59.0550   91.4312    5.6553 N.3     1  UNL1       -0.2900
     33 H          59.9294   91.7805    6.0477 H       1  UNL1        0.1239
     34 C          58.9234   92.0329    4.2875 C.3     1  UNL1        0.0960
     35 C          60.1509   92.4196    3.5169 C.ar    1  UNL1       -0.0033
     36 C          61.4407   91.6886    3.7447 C.ar    1  UNL1        0.0178
     37 C          62.6682   92.0753    2.9742 C.ar    1  UNL1        0.0986
     38 N          62.6059   93.1930    1.9759 N.ar    1  UNL1       -0.2423
     39 C          61.3160   93.9242    1.7481 C.ar    1  UNL1        0.0986
     40 C          60.0885   93.5374    2.5186 C.ar    1  UNL1        0.0178
@<TRIPOS>BOND
     1    13    14   ar
     2    14    15   ar
     3    15    16   ar
     4    16    17   ar
     5    17    18   ar
     6    17    19    1
     7    19    20    1
     8    20    21    1
     9    21    12    1
    10    12     1    1
    11     1    24    1
    12    24    25    1
    13    25    26   ar
    14    26    27   ar
    15    27    28   ar
    16    28    31    1
    17    31    32    1
    18    32    34    1
    19    34    35    1
    20    35    36   ar
    21    36    37   ar
    22    37    38   ar
    23    38    39   ar
    24    39    40   ar
    25    28    29   ar
    26    29    30   ar
    27     2     1    1
    28     2     3    1
    29     3     4    1
    30     4     5    1
    31     5     6    1
    32     6     7   ar
    33     7     8   ar
    34     8     9   ar
    35     9    10   ar
    36    10    11   ar
    37    21    22    1
    38    18    13   ar
    39    30    25   ar
    40    11     2    1
    41    22    16    1
    42    40    35   ar
    43    11     6   ar
    44    20    23    1
    45    32    33    1
@<TRIPOS>MOLECULE
*****
 40 45 0 0 0
SMALL
GASTEIGER

@<TRIPOS>ATOM
      1 N          63.7852   89.9114   13.6525 N.3     1  UNL1       -0.2641
      2 C          64.4930   91.0727   13.0197 C.3     1  UNL1        0.0981
      3 C          64.2614   91.3943   11.5730 C.3     1  UNL1        0.0224
      4 C          64.9692   92.5556   10.9402 C.3     1  UNL1        0.0065
      5 C          65.9086   93.3953   11.7541 C.3     1  UNL1        0.0277
      6 C          66.1402   93.0737   13.2008 C.ar    1  UNL1       -0.0073
      7 C          67.0796   93.9134   14.0147 C.ar    1  UNL1       -0.0015
      8 C          67.3111   93.5918   15.4614 C.ar    1  UNL1        0.0203
      9 C          66.6034   92.4306   16.0942 C.ar    1  UNL1        0.0985
     10 N          65.6640   91.5908   15.2803 N.ar    1  UNL1       -0.2471
     11 C          65.4324   91.9124   13.8336 C.ar    1  UNL1        0.0695
     12 C          64.5614   88.9006   14.4436 C.3     1  UNL1        0.0888
     13 C          62.3936   82.4301   13.6167 C.ar    1  UNL1       -0.0003
     14 C          62.7010   83.0205   12.2725 C.ar    1  UNL1       -0.0003
     15 C          63.1960   84.4328   12.1691 C.ar    1  UNL1       -0.0045
     16 C          63.3837   85.2545   13.4098 C.ar    1  UNL1       -0.0234
     17 C          63.0764   84.6641   14.7540 C.ar    1  UNL1       -0.0103
     18 C          62.5813   83.2519   14.8575 C.ar    1  UNL1       -0.0032
     19 C          63.2641   85.4859   15.9948 C.3     1  UNL1        0.0953
     20 N          63.7591   86.8980   15.8913 N.3     1  UNL1       -0.2934
     21 C          64.0664   87.4884   14.5471 C.3     1  UNL1        0.0748
     22 C          63.8788   86.6667   13.3064 C.3     1  UNL1        0.0432
     23 H          64.6180   86.9498   16.4390 H       1  UNL1        0.1236
     24 C          62.3012   89.7609   13.4942 C.3     1  UNL1        0.0994
     25 C          61.7018   89.6364   12.1248 C.ar    1  UNL1       -0.0062
     26 C          60.3321   90.1844   11.8530 C.ar    1  UNL1       -0.0032
     27 C          59.7327   90.0599   10.4837 C.ar    1  UNL1       -0.0032
     28 C          60.5030   89.3876    9.3860 C.ar    1  UNL1       -0.0064
     29 C          61.8726   88.8398    9.6578 C.ar    1  UNL1       -0.0032
     30 C          62.4721   88.9642   11.0272 C.ar    1  UNL1       -0.0032
     31 C          59.9036   89.2632    8.0167 C.3     1  UNL1        0.0959
     32 N          59.0122   88.1017    7.6908 N.3     1  UNL1       -0.2900
     33 H          59.0508   87.9755    6.6794 H       1  UNL1        0.1239
     34 C          59.2755   86.7587    8.3051 C.3     1  UNL1        0.0960
     35 C          60.5281   86.0090    7.9605 C.ar    1  UNL1       -0.0033
     36 C          60.6368   85.2942    6.6462 C.ar    1  UNL1        0.0178
     37 C          61.8894   84.5445    6.3015 C.ar    1  UNL1        0.0986
     38 N          63.0333   84.5094    7.2711 N.ar    1  UNL1       -0.2423
     39 C          62.9247   85.2241    8.5854 C.ar    1  UNL1        0.0986
     40 C          61.6721   85.9739    8.9301 C.ar    1  UNL1        0.0178
@<TRIPOS>BOND
     1    13    14   ar
     2    14    15   ar
     3    15    16   ar
     4    16    17   ar
     5    17    18   ar
     6    17    19    1
     7    19    20    1
     8    20    21    1
     9    21    12    1
    10    12     1    1
    11     1    24    1
    12    24    25    1
    13    25    26   ar
    14    26    27   ar
    15    27    28   ar
    16    28    31    1
    17    31    32    1
    18    32    34    1
    19    34    35    1
    20    35    36   ar
    21    36    37   ar
    22    37    38   ar
    23    38    39   ar
    24    39    40   ar
    25    28    29   ar
    26    29    30   ar
    27     2     1    1
    28     2     3    1
    29     3     4    1
    30     4     5    1
    31     5     6    1
    32     6     7   ar
    33     7     8   ar
    34     8     9   ar
    35     9    10   ar
    36    10    11   ar
    37    21    22    1
    38    18    13   ar
    39    30    25   ar
    40    11     2    1
    41    22    16    1
    42    40    35   ar
    43    11     6   ar
    44    20    23    1
    45    32    33    1
@<TRIPOS>MOLECULE
*****
 40 45 0 0 0
SMALL
GASTEIGER

@<TRIPOS>ATOM
      1 N          63.8240   90.6067   12.4473 N.3     1  UNL1       -0.2641
      2 C          64.7747   91.5658   13.1001 C.3     1  UNL1        0.0981
      3 C          65.2074   91.3439   14.5192 C.3     1  UNL1        0.0224
      4 C          66.1582   92.3030   15.1721 C.3     1  UNL1        0.0065
      5 C          66.6762   93.4839   14.4059 C.3     1  UNL1        0.0277
      6 C          66.2436   93.7058   12.9870 C.ar    1  UNL1       -0.0073
      7 C          66.7617   94.8868   12.2209 C.ar    1  UNL1       -0.0015
      8 C          66.3290   95.1087   10.8018 C.ar    1  UNL1        0.0203
      9 C          65.3783   94.1496   10.1489 C.ar    1  UNL1        0.0985
     10 N          64.8602   92.9687   10.9151 N.ar    1  UNL1       -0.2471
     11 C          65.2928   92.7468   12.3340 C.ar    1  UNL1        0.0695
     12 C          63.7219   90.5530   10.9517 C.3     1  UNL1        0.0888
     13 C          59.1230   86.5170    7.8195 C.ar    1  UNL1       -0.0003
     14 C          60.4272   85.7838    7.9268 C.ar    1  UNL1       -0.0003
     15 C          61.6078   86.4444    8.5748 C.ar    1  UNL1       -0.0045
     16 C          61.4842   87.8381    9.1153 C.ar    1  UNL1       -0.0234
     17 C          60.1800   88.5713    9.0080 C.ar    1  UNL1       -0.0103
     18 C          58.9994   87.9107    8.3601 C.ar    1  UNL1       -0.0032
     19 C          60.0565   89.9651    9.5486 C.3     1  UNL1        0.0953
     20 N          61.2371   90.6256   10.1964 N.3     1  UNL1       -0.2934
     21 C          62.5413   89.8925   10.3038 C.3     1  UNL1        0.0748
     22 C          62.6649   88.4987    9.7632 C.3     1  UNL1        0.0432
     23 H          60.9552   90.8658   11.1468 H       1  UNL1        0.1236
     24 C          62.9753   89.7014   13.2900 C.3     1  UNL1        0.0994
     25 C          63.4208   88.2954   13.5631 C.ar    1  UNL1       -0.0062
     26 C          63.0272   87.1892   12.6295 C.ar    1  UNL1       -0.0032
     27 C          63.4726   85.7832   12.9025 C.ar    1  UNL1       -0.0032
     28 C          64.3117   85.4832   14.1092 C.ar    1  UNL1       -0.0064
     29 C          64.7053   86.5893   15.0428 C.ar    1  UNL1       -0.0032
     30 C          64.2598   87.9955   14.7697 C.ar    1  UNL1       -0.0032
     31 C          64.7571   84.0772   14.3823 C.3     1  UNL1        0.0959
     32 N          63.8507   83.1319   15.1135 N.3     1  UNL1       -0.2900
     33 H          63.5171   83.6252   15.9417 H       1  UNL1        0.1239
     34 C          62.6407   82.5710   14.4269 C.3     1  UNL1        0.0960
     35 C          62.7886   81.8381   13.1265 C.ar    1  UNL1       -0.0033
     36 C          62.5496   80.3585   13.0680 C.ar    1  UNL1        0.0178
     37 C          62.6976   79.6257   11.7676 C.ar    1  UNL1        0.0986
     38 N          63.0845   80.3725   10.5257 N.ar    1  UNL1       -0.2423
     39 C          63.3235   81.8522   10.5841 C.ar    1  UNL1        0.0986
     40 C          63.1756   82.5850   11.8845 C.ar    1  UNL1        0.0178
@<TRIPOS>BOND
     1    13    14   ar
     2    14    15   ar
     3    15    16   ar
     4    16    17   ar
     5    17    18   ar
     6    17    19    1
     7    19    20    1
     8    20    21    1
     9    21    12    1
    10    12     1    1
    11     1    24    1
    12    24    25    1
    13    25    26   ar
    14    26    27   ar
    15    27    28   ar
    16    28    31    1
    17    31    32    1
    18    32    34    1
    19    34    35    1
    20    35    36   ar
    21    36    37   ar
    22    37    38   ar
    23    38    39   ar
    24    39    40   ar
    25    28    29   ar
    26    29    30   ar
    27     2     1    1
    28     2     3    1
    29     3     4    1
    30     4     5    1
    31     5     6    1
    32     6     7   ar
    33     7     8   ar
    34     8     9   ar
    35     9    10   ar
    36    10    11   ar
    37    21    22    1
    38    18    13   ar
    39    30    25   ar
    40    11     2    1
    41    22    16    1
    42    40    35   ar
    43    11     6   ar
    44    20    23    1
    45    32    33    1
@<TRIPOS>MOLECULE
*****
 40 45 0 0 0
SMALL
GASTEIGER

@<TRIPOS>ATOM
      1 N          62.4234   87.2796   11.9681 N.3     1  UNL1       -0.2641
      2 C          63.1600   86.1632   12.6470 C.3     1  UNL1        0.0981
      3 C          63.5909   86.3090   14.0764 C.3     1  UNL1        0.0224
      4 C          64.3275   85.1926   14.7554 C.3     1  UNL1        0.0065
      5 C          64.6333   83.9303   14.0050 C.3     1  UNL1        0.0277
      6 C          64.2024   83.7844   12.5757 C.ar    1  UNL1       -0.0073
      7 C          64.5082   82.5221   11.8253 C.ar    1  UNL1       -0.0015
      8 C          64.0773   82.3762   10.3959 C.ar    1  UNL1        0.0203
      9 C          63.3406   83.4926    9.7169 C.ar    1  UNL1        0.0985
     10 N          63.0349   84.7549   10.4673 N.ar    1  UNL1       -0.2471
     11 C          63.4658   84.9009   11.8966 C.ar    1  UNL1        0.0695
     12 C          63.0929   88.6068   11.7672 C.3     1  UNL1        0.0888
     13 C          65.9681   92.7522   16.4362 C.ar    1  UNL1       -0.0003
     14 C          66.7717   92.8059   15.1708 C.ar    1  UNL1       -0.0003
     15 C          66.3574   91.9875   13.9839 C.ar    1  UNL1       -0.0045
     16 C          65.1394   91.1155   14.0625 C.ar    1  UNL1       -0.0234
     17 C          64.3358   91.0618   15.3279 C.ar    1  UNL1       -0.0103
     18 C          64.7501   91.8801   16.5147 C.ar    1  UNL1       -0.0032
     19 C          63.1178   90.1897   15.4064 C.3     1  UNL1        0.0953
     20 N          62.7035   89.3714   14.2195 N.3     1  UNL1       -0.2934
     21 C          63.5072   89.4251   12.9541 C.3     1  UNL1        0.0748
     22 C          64.7251   90.2971   12.8755 C.3     1  UNL1        0.0432
     23 H          61.7555   89.6608   13.9788 H       1  UNL1        0.1236
     24 C          61.0174   87.0688   11.4900 C.3     1  UNL1        0.0994
     25 C          60.5566   87.7042   10.2118 C.ar    1  UNL1       -0.0062
     26 C          60.1485   86.8452    9.0517 C.ar    1  UNL1       -0.0032
     27 C          59.6878   87.4806    7.7735 C.ar    1  UNL1       -0.0032
     28 C          59.6351   88.9750    7.6552 C.ar    1  UNL1       -0.0064
     29 C          60.0432   89.8340    8.8151 C.ar    1  UNL1       -0.0032
     30 C          60.5040   89.1986   10.0935 C.ar    1  UNL1       -0.0032
     31 C          59.1744   89.6104    6.3770 C.3     1  UNL1        0.0959
     32 N          60.0724   90.5654    5.6479 N.3     1  UNL1       -0.2900
     33 H          60.7244   89.9999    5.1044 H       1  UNL1        0.1239
     34 C          59.4865   91.5757    4.7065 C.3     1  UNL1        0.0960
     35 C          60.3417   92.1894    3.6379 C.ar    1  UNL1       -0.0033
     36 C          61.7903   91.8156    3.5297 C.ar    1  UNL1        0.0178
     37 C          62.6454   92.4294    2.4610 C.ar    1  UNL1        0.0986
     38 N          62.0520   93.4170    1.5006 N.ar    1  UNL1       -0.2423
     39 C          60.6033   93.7908    1.6088 C.ar    1  UNL1        0.0986
     40 C          59.7481   93.1770    2.6774 C.ar    1  UNL1        0.0178
@<TRIPOS>BOND
     1    13    14   ar
     2    14    15   ar
     3    15    16   ar
     4    16    17   ar
     5    17    18   ar
     6    17    19    1
     7    19    20    1
     8    20    21    1
     9    21    12    1
    10    12     1    1
    11     1    24    1
    12    24    25    1
    13    25    26   ar
    14    26    27   ar
    15    27    28   ar
    16    28    31    1
    17    31    32    1
    18    32    34    1
    19    34    35    1
    20    35    36   ar
    21    36    37   ar
    22    37    38   ar
    23    38    39   ar
    24    39    40   ar
    25    28    29   ar
    26    29    30   ar
    27     2     1    1
    28     2     3    1
    29     3     4    1
    30     4     5    1
    31     5     6    1
    32     6     7   ar
    33     7     8   ar
    34     8     9   ar
    35     9    10   ar
    36    10    11   ar
    37    21    22    1
    38    18    13   ar
    39    30    25   ar
    40    11     2    1
    41    22    16    1
    42    40    35   ar
    43    11     6   ar
    44    20    23    1
    45    32    33    1
@<TRIPOS>MOLECULE
*****
 40 45 0 0 0
SMALL
GASTEIGER

@<TRIPOS>ATOM
      1 N          62.6865   87.0526   11.9186 N.3     1  UNL1       -0.2641
      2 C          63.3525   86.1760   12.9374 C.3     1  UNL1        0.0981
      3 C          64.0707   86.7914   14.1017 C.3     1  UNL1        0.0224
      4 C          64.7367   85.9148   15.1205 C.3     1  UNL1        0.0065
      5 C          64.6843   84.4228   14.9752 C.3     1  UNL1        0.0277
      6 C          63.9661   83.8074   13.8111 C.ar    1  UNL1       -0.0073
      7 C          63.9137   82.3153   13.6657 C.ar    1  UNL1       -0.0015
      8 C          63.1954   81.6999   12.5015 C.ar    1  UNL1        0.0203
      9 C          62.5295   82.5765   11.4826 C.ar    1  UNL1        0.0985
     10 N          62.5819   84.0685   11.6280 N.ar    1  UNL1       -0.2471
     11 C          63.3001   84.6840   12.7921 C.ar    1  UNL1        0.0695
     12 C          62.1767   88.4071   12.3130 C.3     1  UNL1        0.0888
     13 C          66.3620   93.8581   12.1740 C.ar    1  UNL1       -0.0003
     14 C          65.7257   93.6931   10.8257 C.ar    1  UNL1       -0.0003
     15 C          64.7614   92.5699   10.5839 C.ar    1  UNL1       -0.0045
     16 C          64.4333   91.6117   11.6903 C.ar    1  UNL1       -0.0234
     17 C          65.0696   91.7767   13.0386 C.ar    1  UNL1       -0.0103
     18 C          66.0339   92.8998   13.2805 C.ar    1  UNL1       -0.0032
     19 C          64.7415   90.8184   14.1451 C.3     1  UNL1        0.0953
     20 N          63.7772   89.6952   13.9032 N.3     1  UNL1       -0.2934
     21 C          63.1410   89.5302   12.5549 C.3     1  UNL1        0.0748
     22 C          63.4690   90.4884   11.4484 C.3     1  UNL1        0.0432
     23 H          63.0182   89.8090   14.5750 H       1  UNL1        0.1236
     24 C          62.5305   86.5748   10.5053 C.3     1  UNL1        0.0994
     25 C          61.5248   87.2235    9.6010 C.ar    1  UNL1       -0.0062
     26 C          60.6720   86.3800    8.7003 C.ar    1  UNL1       -0.0032
     27 C          59.6663   87.0287    7.7960 C.ar    1  UNL1       -0.0032
     28 C          59.5134   88.5209    7.7924 C.ar    1  UNL1       -0.0064
     29 C          60.3662   89.3644    8.6930 C.ar    1  UNL1       -0.0032
     30 C          61.3719   88.7157    9.5974 C.ar    1  UNL1       -0.0032
     31 C          58.5078   89.1696    6.8881 C.3     1  UNL1        0.0959
     32 N          58.9402   89.7318    5.5664 N.3     1  UNL1       -0.2900
     33 H          58.2626   89.4117    4.8744 H       1  UNL1        0.1239
     34 C          59.0720   91.2155    5.3895 C.3     1  UNL1        0.0960
     35 C          59.9987   91.7671    4.3469 C.ar    1  UNL1       -0.0033
     36 C          59.5011   92.7851    3.3641 C.ar    1  UNL1        0.0178
     37 C          60.4278   93.3367    2.3215 C.ar    1  UNL1        0.0986
     38 N          61.8521   92.8703    2.2618 N.ar    1  UNL1       -0.2423
     39 C          62.3499   91.8523    3.2447 C.ar    1  UNL1        0.0986
     40 C          61.4232   91.3007    4.2872 C.ar    1  UNL1        0.0178
@<TRIPOS>BOND
     1    13    14   ar
     2    14    15   ar
     3    15    16   ar
     4    16    17   ar
     5    17    18   ar
     6    17    19    1
     7    19    20    1
     8    20    21    1
     9    21    12    1
    10    12     1    1
    11     1    24    1
    12    24    25    1
    13    25    26   ar
    14    26    27   ar
    15    27    28   ar
    16    28    31    1
    17    31    32    1
    18    32    34    1
    19    34    35    1
    20    35    36   ar
    21    36    37   ar
    22    37    38   ar
    23    38    39   ar
    24    39    40   ar
    25    28    29   ar
    26    29    30   ar
    27     2     1    1
    28     2     3    1
    29     3     4    1
    30     4     5    1
    31     5     6    1
    32     6     7   ar
    33     7     8   ar
    34     8     9   ar
    35     9    10   ar
    36    10    11   ar
    37    21    22    1
    38    18    13   ar
    39    30    25   ar
    40    11     2    1
    41    22    16    1
    42    40    35   ar
    43    11     6   ar
    44    20    23    1
    45    32    33    1
@<TRIPOS>MOLECULE
*****
 40 45 0 0 0
SMALL
GASTEIGER

@<TRIPOS>ATOM
      1 N          63.9764   91.0238   12.0114 N.3     1  UNL1       -0.2641
      2 C          64.8229   92.2608   12.0661 C.3     1  UNL1        0.0981
      3 C          64.8503   93.2030   10.8992 C.3     1  UNL1        0.0224
      4 C          65.6969   94.4400   10.9538 C.3     1  UNL1        0.0065
      5 C          66.5162   94.7349   12.1753 C.3     1  UNL1        0.0277
      6 C          66.4888   93.7927   13.3421 C.ar    1  UNL1       -0.0073
      7 C          67.3081   94.0875   14.5635 C.ar    1  UNL1       -0.0015
      8 C          67.2807   93.1453   15.7304 C.ar    1  UNL1        0.0203
      9 C          66.4341   91.9083   15.6757 C.ar    1  UNL1        0.0985
     10 N          65.6148   91.6134   14.4543 N.ar    1  UNL1       -0.2471
     11 C          65.6422   92.5556   13.2875 C.ar    1  UNL1        0.0695
     12 C          64.0087   90.1459   10.7955 C.3     1  UNL1        0.0888
     13 C          58.8103   86.7350    7.8642 C.ar    1  UNL1       -0.0003
     14 C          60.0177   85.8461    7.9087 C.ar    1  UNL1       -0.0003
     15 C          61.2989   86.3505    8.5039 C.ar    1  UNL1       -0.0045
     16 C          61.3726   87.7438    9.0545 C.ar    1  UNL1       -0.0234
     17 C          60.1652   88.6327    9.0100 C.ar    1  UNL1       -0.0103
     18 C          58.8841   88.1283    8.4149 C.ar    1  UNL1       -0.0032
     19 C          60.2390   90.0261    9.5607 C.3     1  UNL1        0.0953
     20 N          61.5201   90.5304   10.1559 N.3     1  UNL1       -0.2934
     21 C          62.7275   89.6415   10.2004 C.3     1  UNL1        0.0748
     22 C          62.6538   88.2482    9.6497 C.3     1  UNL1        0.0432
     23 H          61.3134   90.7946   11.1191 H       1  UNL1        0.1236
     24 C          63.0974   90.6646   13.1727 C.3     1  UNL1        0.0994
     25 C          63.3473   89.3998   13.9394 C.ar    1  UNL1       -0.0062
     26 C          63.7259   88.1439   13.2117 C.ar    1  UNL1       -0.0032
     27 C          63.9758   86.8792   13.9785 C.ar    1  UNL1       -0.0032
     28 C          63.8472   86.8703   15.4729 C.ar    1  UNL1       -0.0064
     29 C          63.4687   88.1261   16.2006 C.ar    1  UNL1       -0.0032
     30 C          63.2187   89.3909   15.4339 C.ar    1  UNL1       -0.0032
     31 C          64.0971   85.6055   16.2397 C.3     1  UNL1        0.0959
     32 N          64.5778   84.3776   15.5248 N.3     1  UNL1       -0.2900
     33 H          65.2475   83.9199   16.1432 H       1  UNL1        0.1239
     34 C          63.5966   83.3272   15.0957 C.3     1  UNL1        0.0960
     35 C          63.5915   82.8406   13.6768 C.ar    1  UNL1       -0.0033
     36 C          62.8311   81.6001   13.3121 C.ar    1  UNL1        0.0178
     37 C          62.8259   81.1136   11.8932 C.ar    1  UNL1        0.0986
     38 N          63.5811   81.8675   10.8390 N.ar    1  UNL1       -0.2423
     39 C          64.3415   83.1080   11.2037 C.ar    1  UNL1        0.0986
     40 C          64.3467   83.5946   12.6226 C.ar    1  UNL1        0.0178
@<TRIPOS>BOND
     1    13    14   ar
     2    14    15   ar
     3    15    16   ar
     4    16    17   ar
     5    17    18   ar
     6    17    19    1
     7    19    20    1
     8    20    21    1
     9    21    12    1
    10    12     1    1
    11     1    24    1
    12    24    25    1
    13    25    26   ar
    14    26    27   ar
    15    27    28   ar
    16    28    31    1
    17    31    32    1
    18    32    34    1
    19    34    35    1
    20    35    36   ar
    21    36    37   ar
    22    37    38   ar
    23    38    39   ar
    24    39    40   ar
    25    28    29   ar
    26    29    30   ar
    27     2     1    1
    28     2     3    1
    29     3     4    1
    30     4     5    1
    31     5     6    1
    32     6     7   ar
    33     7     8   ar
    34     8     9   ar
    35     9    10   ar
    36    10    11   ar
    37    21    22    1
    38    18    13   ar
    39    30    25   ar
    40    11     2    1
    41    22    16    1
    42    40    35   ar
    43    11     6   ar
    44    20    23    1
    45    32    33    1
