@<TRIPOS>MOLECULE
*****
 35 38 0 0 0
SMALL
GASTEIGER

@<TRIPOS>ATOM
      1 C          64.9406   91.8153   12.3688 C.ar    1  UNL1        0.1535
      2 C          65.0133   90.8810   13.5400 C.ar    1  UNL1        0.0370
      3 C          64.1730   89.6387   13.5616 C.ar    1  UNL1        0.0936
      4 CL         64.2457   88.7043   14.7328 Cl      1  UNL1       -0.0790
      5 C          63.2600   89.3307   12.4120 C.ar    1  UNL1        0.1581
      6 C          63.1873   90.2650   11.2408 C.ar    1  UNL1        0.0694
      7 C          64.0276   91.5073   11.2192 C.ar    1  UNL1        0.1620
      8 F          63.9549   92.4417   10.0480 F       1  UNL1       -0.2026
      9 O          65.3890   93.3475   13.7657 O.2     1  UNL1       -0.1498
     10 S          65.7809   93.0577   12.3471 S.O2    1  UNL1        0.0773
     11 O          66.1729   92.7679   10.9286 O.2     1  UNL1       -0.1498
     12 N          66.6212   94.3000   12.3255 N.pl3   1  UNL1       -0.1922
     13 H          67.1374   94.5591   13.1228 H       1  UNL1        0.1758
     14 C          66.6750   95.1477   11.0891 C.ar    1  UNL1        0.2010
     15 N          67.6540   95.0019    9.9621 N.ar    1  UNL1       -0.1241
     16 N          67.3434   96.0540    8.9391 N.ar    1  UNL1       -0.1374
     17 C          66.1723   96.8502    9.4340 C.ar    1  UNL1        0.1605
     18 S          65.7592   96.2900   10.7628 S.2     1  UNL1       -0.0272
     19 O          62.4196   88.0883   12.4337 O.3     1  UNL1       -0.4526
     20 C          62.1489   87.3437   11.1600 C.ar    1  UNL1        0.1453
     21 C          61.6277   88.0761    9.9593 C.ar    1  UNL1        0.0374
     22 C          61.3570   87.3314    8.6856 C.ar    1  UNL1        0.0070
     23 C          61.6075   85.8543    8.6127 C.ar    1  UNL1        0.0716
     24 C          62.1287   85.1218    9.8135 C.ar    1  UNL1        0.0069
     25 C          62.3994   85.8665   11.0871 C.ar    1  UNL1        0.0361
     26 C          62.9207   85.1340   12.2879 C.ar    1  UNL1        0.0255
     27 C          63.6365   85.8842   13.3717 C.ar    1  UNL1        0.0242
     28 C          64.1577   85.1518   14.5724 C.ar    1  UNL1        0.1222
     29 N          63.9631   83.6691   14.6894 N.ar    1  UNL1       -0.1464
     30 N          63.2472   82.9188   13.6056 N.ar    1  UNL1       -0.1464
     31 C          62.7260   83.6512   12.4048 C.ar    1  UNL1        0.1222
     32 C          61.3368   85.1097    7.3391 C.3     1  UNL1        0.4186
     33 F          61.0661   84.3650    6.0654 F       1  UNL1       -0.1659
     34 F          59.9040   85.5511    7.3855 F       1  UNL1       -0.1659
     35 F          62.7696   84.6682    7.2927 F       1  UNL1       -0.1659
@<TRIPOS>BOND
     1     9    10    2
     2    10    11    2
     3    10    12    1
     4    12    14    1
     5    14    15   ar
     6    15    16   ar
     7    16    17   ar
     8    17    18   ar
     9    10     1    1
    10     1     2   ar
    11     2     3   ar
    12     3     4    1
    13     3     5   ar
    14     5    19    1
    15    19    20    1
    16    20    21   ar
    17    21    22   ar
    18    22    23   ar
    19    23    32    1
    20    32    33    1
    21    32    34    1
    22    32    35    1
    23    23    24   ar
    24    24    25   ar
    25    25    26    1
    26    26    27   ar
    27    27    28   ar
    28    28    29   ar
    29    29    30   ar
    30    30    31   ar
    31     5     6   ar
    32     6     7   ar
    33     7     8    1
    34    18    14   ar
    35     7     1   ar
    36    25    20   ar
    37    31    26   ar
    38    12    13    1
@<TRIPOS>MOLECULE
*****
 35 38 0 0 0
SMALL
GASTEIGER

@<TRIPOS>ATOM
      1 C          63.7381   86.1026   14.6732 C.ar    1  UNL1        0.1535
      2 C          63.6948   87.0581   15.8285 C.ar    1  UNL1        0.0370
      3 C          63.5388   88.5291   15.5798 C.ar    1  UNL1        0.0936
      4 CL         63.4955   89.4847   16.7352 Cl      1  UNL1       -0.0790
      5 C          63.4259   89.0444   14.1756 C.ar    1  UNL1        0.1581
      6 C          63.4692   88.0889   13.0202 C.ar    1  UNL1        0.0694
      7 C          63.6253   86.6179   13.2690 C.ar    1  UNL1        0.1620
      8 F          63.6685   85.6623   12.1136 F       1  UNL1       -0.2026
      9 O          65.3426   84.7212   14.5427 O.2     1  UNL1       -0.1498
     10 S          63.8942   84.6315   14.9219 S.O2    1  UNL1        0.0773
     11 O          62.4457   84.5419   15.3011 O.2     1  UNL1       -0.1498
     12 N          64.0503   83.1606   15.1706 N.pl3   1  UNL1       -0.1922
     13 H          64.5244   82.8447   15.9735 H       1  UNL1        0.1758
     14 C          63.4840   82.1709   14.1960 C.ar    1  UNL1        0.2010
     15 N          62.5085   81.0773   14.5163 N.ar    1  UNL1       -0.1241
     16 N          62.2154   80.3316   13.2483 N.ar    1  UNL1       -0.1374
     17 C          63.0097   80.9642   12.1442 C.ar    1  UNL1        0.1605
     18 S          63.7938   82.1011   12.7300 S.2     1  UNL1       -0.0272
     19 O          63.2699   90.5155   13.9269 O.3     1  UNL1       -0.4526
     20 C          64.1588   91.2071   12.9363 C.ar    1  UNL1        0.1453
     21 C          65.4222   91.8710   13.3979 C.ar    1  UNL1        0.0374
     22 C          66.3112   92.5626   12.4072 C.ar    1  UNL1        0.0070
     23 C          65.9368   92.5903   10.9550 C.ar    1  UNL1        0.0716
     24 C          64.6734   91.9265   10.4934 C.ar    1  UNL1        0.0069
     25 C          63.7844   91.2348   11.4840 C.ar    1  UNL1        0.0361
     26 C          62.5210   90.5710   11.0223 C.ar    1  UNL1        0.0255
     27 C          62.5833   89.4482   10.0296 C.ar    1  UNL1        0.0242
     28 C          61.3199   88.7844    9.5680 C.ar    1  UNL1        0.1222
     29 N          59.9942   89.2432   10.0991 N.ar    1  UNL1       -0.1464
     30 N          59.9320   90.3660   11.0919 N.ar    1  UNL1       -0.1464
     31 C          61.1954   91.0299   11.5535 C.ar    1  UNL1        0.1222
     32 C          66.8258   93.2819    9.9644 C.3     1  UNL1        0.4186
     33 F          67.7149   93.9736    8.9737 F       1  UNL1       -0.1659
     34 F          66.0296   94.5423   10.1298 F       1  UNL1       -0.1659
     35 F          67.6220   92.0215    9.7989 F       1  UNL1       -0.1659
@<TRIPOS>BOND
     1     9    10    2
     2    10    11    2
     3    10    12    1
     4    12    14    1
     5    14    15   ar
     6    15    16   ar
     7    16    17   ar
     8    17    18   ar
     9    10     1    1
    10     1     2   ar
    11     2     3   ar
    12     3     4    1
    13     3     5   ar
    14     5    19    1
    15    19    20    1
    16    20    21   ar
    17    21    22   ar
    18    22    23   ar
    19    23    32    1
    20    32    33    1
    21    32    34    1
    22    32    35    1
    23    23    24   ar
    24    24    25   ar
    25    25    26    1
    26    26    27   ar
    27    27    28   ar
    28    28    29   ar
    29    29    30   ar
    30    30    31   ar
    31     5     6   ar
    32     6     7   ar
    33     7     8    1
    34    18    14   ar
    35     7     1   ar
    36    25    20   ar
    37    31    26   ar
    38    12    13    1
@<TRIPOS>MOLECULE
*****
 35 38 0 0 0
SMALL
GASTEIGER

@<TRIPOS>ATOM
      1 C          64.7983   91.6314   12.0062 C.ar    1  UNL1        0.1535
      2 C          64.7977   90.6612   13.1502 C.ar    1  UNL1        0.0370
      3 C          63.8132   89.5299   13.1736 C.ar    1  UNL1        0.0936
      4 CL         63.8126   88.5596   14.3176 Cl      1  UNL1       -0.0790
      5 C          62.8291   89.3687   12.0530 C.ar    1  UNL1        0.1581
      6 C          62.8297   90.3388   10.9090 C.ar    1  UNL1        0.0694
      7 C          63.8143   91.4702   10.8856 C.ar    1  UNL1        0.1620
      8 F          63.8149   92.4404    9.7416 F       1  UNL1       -0.2026
      9 O          65.3316   93.1838   13.3499 O.2     1  UNL1       -0.1498
     10 S          65.7829   92.7628   11.9827 S.O2    1  UNL1        0.0773
     11 O          66.2342   92.3418   10.6156 O.2     1  UNL1       -0.1498
     12 N          66.7675   93.8942   11.9594 N.pl3   1  UNL1       -0.1922
     13 H          67.4107   94.0023   12.6968 H       1  UNL1        0.1758
     14 C          66.7720   94.8609   10.8124 C.ar    1  UNL1        0.2010
     15 N          67.8347   94.9754    9.7600 N.ar    1  UNL1       -0.1241
     16 N          67.4341   96.0681    8.8137 N.ar    1  UNL1       -0.1374
     17 C          66.1237   96.6289    9.2812 C.ar    1  UNL1        0.1605
     18 S          65.7145   95.8828   10.5165 S.2     1  UNL1       -0.0272
     19 O          61.8445   88.2372   12.0764 O.3     1  UNL1       -0.4526
     20 C          62.2880   86.8496   11.7191 C.ar    1  UNL1        0.1453
     21 C          63.1607   86.0750   12.6616 C.ar    1  UNL1        0.0374
     22 C          63.6042   84.6873   12.3042 C.ar    1  UNL1        0.0070
     23 C          63.1748   84.0742   11.0043 C.ar    1  UNL1        0.0716
     24 C          62.3021   84.8488   10.0618 C.ar    1  UNL1        0.0069
     25 C          61.8586   86.2364   10.4191 C.ar    1  UNL1        0.0361
     26 C          60.9858   87.0110    9.4766 C.ar    1  UNL1        0.0255
     27 C          60.0489   86.2871    8.5558 C.ar    1  UNL1        0.0242
     28 C          59.1761   87.0616    7.6133 C.ar    1  UNL1        0.1222
     29 N          59.2403   88.5601    7.5916 N.ar    1  UNL1       -0.1464
     30 N          60.1773   89.2840    8.5125 N.ar    1  UNL1       -0.1464
     31 C          61.0501   88.5095    9.4550 C.ar    1  UNL1        0.1222
     32 C          63.6183   82.6866   10.6469 C.3     1  UNL1        0.4186
     33 F          64.0617   81.2988   10.2895 F       1  UNL1       -0.1659
     34 F          64.7243   83.2559    9.8088 F       1  UNL1       -0.1659
     35 F          62.5122   82.1173   11.4850 F       1  UNL1       -0.1659
@<TRIPOS>BOND
     1     9    10    2
     2    10    11    2
     3    10    12    1
     4    12    14    1
     5    14    15   ar
     6    15    16   ar
     7    16    17   ar
     8    17    18   ar
     9    10     1    1
    10     1     2   ar
    11     2     3   ar
    12     3     4    1
    13     3     5   ar
    14     5    19    1
    15    19    20    1
    16    20    21   ar
    17    21    22   ar
    18    22    23   ar
    19    23    32    1
    20    32    33    1
    21    32    34    1
    22    32    35    1
    23    23    24   ar
    24    24    25   ar
    25    25    26    1
    26    26    27   ar
    27    27    28   ar
    28    28    29   ar
    29    29    30   ar
    30    30    31   ar
    31     5     6   ar
    32     6     7   ar
    33     7     8    1
    34    18    14   ar
    35     7     1   ar
    36    25    20   ar
    37    31    26   ar
    38    12    13    1
@<TRIPOS>MOLECULE
*****
 35 38 0 0 0
SMALL
GASTEIGER

@<TRIPOS>ATOM
      1 C          64.3342   90.3454   13.3119 C.ar    1  UNL1        0.1535
      2 C          64.6013   89.1085   14.1173 C.ar    1  UNL1        0.0370
      3 C          63.9257   87.8186   13.7571 C.ar    1  UNL1        0.0936
      4 CL         64.1927   86.5816   14.5625 Cl      1  UNL1       -0.0790
      5 C          62.9831   87.7656   12.5915 C.ar    1  UNL1        0.1581
      6 C          62.7160   89.0025   11.7861 C.ar    1  UNL1        0.0694
      7 C          63.3916   90.2924   12.1463 C.ar    1  UNL1        0.1620
      8 F          63.1245   91.5294   11.3409 F       1  UNL1       -0.2026
      9 O          64.3565   91.6005   15.0219 O.2     1  UNL1       -0.1498
     10 S          65.0098   91.6353   13.6721 S.O2    1  UNL1        0.0773
     11 O          65.6630   91.6702   12.3223 O.2     1  UNL1       -0.1498
     12 N          65.6853   92.9252   14.0324 N.pl3   1  UNL1       -0.1922
     13 H          65.2080   93.7789   13.9202 H       1  UNL1        0.1758
     14 C          67.0881   92.9144   14.5635 C.ar    1  UNL1        0.2010
     15 N          68.3282   92.6201   13.7726 N.ar    1  UNL1       -0.1241
     16 N          69.5035   92.7198   14.6992 N.ar    1  UNL1       -0.1374
     17 C          68.9899   93.0758   16.0628 C.ar    1  UNL1        0.1605
     18 S          67.4970   93.1960   15.9790 S.2     1  UNL1       -0.0272
     19 O          62.3075   86.4757   12.2313 O.3     1  UNL1       -0.4526
     20 C          62.2215   86.0494   10.7957 C.ar    1  UNL1        0.1453
     21 C          61.6637   86.9877    9.7669 C.ar    1  UNL1        0.0374
     22 C          61.5777   86.5613    8.3312 C.ar    1  UNL1        0.0070
     23 C          62.0496   85.1968    7.9245 C.ar    1  UNL1        0.0716
     24 C          62.6074   84.2586    8.9534 C.ar    1  UNL1        0.0069
     25 C          62.6934   84.6849   10.3889 C.ar    1  UNL1        0.0361
     26 C          63.2512   83.7466   11.4178 C.ar    1  UNL1        0.0255
     27 C          62.6723   83.7205   12.8013 C.ar    1  UNL1        0.0242
     28 C          63.2301   82.7822   13.8302 C.ar    1  UNL1        0.1222
     29 N          64.3668   81.8702   13.4755 N.ar    1  UNL1       -0.1464
     30 N          64.9458   81.8963   12.0920 N.ar    1  UNL1       -0.1464
     31 C          64.3880   82.8345   11.0631 C.ar    1  UNL1        0.1222
     32 C          61.9636   84.7706    6.4890 C.3     1  UNL1        0.4186
     33 F          61.8776   84.3443    5.0533 F       1  UNL1       -0.1659
     34 F          63.4596   84.6803    6.4262 F       1  UNL1       -0.1659
     35 F          60.4677   84.8608    6.5518 F       1  UNL1       -0.1659
@<TRIPOS>BOND
     1     9    10    2
     2    10    11    2
     3    10    12    1
     4    12    14    1
     5    14    15   ar
     6    15    16   ar
     7    16    17   ar
     8    17    18   ar
     9    10     1    1
    10     1     2   ar
    11     2     3   ar
    12     3     4    1
    13     3     5   ar
    14     5    19    1
    15    19    20    1
    16    20    21   ar
    17    21    22   ar
    18    22    23   ar
    19    23    32    1
    20    32    33    1
    21    32    34    1
    22    32    35    1
    23    23    24   ar
    24    24    25   ar
    25    25    26    1
    26    26    27   ar
    27    27    28   ar
    28    28    29   ar
    29    29    30   ar
    30    30    31   ar
    31     5     6   ar
    32     6     7   ar
    33     7     8    1
    34    18    14   ar
    35     7     1   ar
    36    25    20   ar
    37    31    26   ar
    38    12    13    1
@<TRIPOS>MOLECULE
*****
 35 38 0 0 0
SMALL
GASTEIGER

@<TRIPOS>ATOM
      1 C          60.2266   88.5835    8.8128 C.ar    1  UNL1        0.1535
      2 C          59.9867   89.5253    9.9553 C.ar    1  UNL1        0.0370
      3 C          60.8079   89.4123   11.2054 C.ar    1  UNL1        0.0936
      4 CL         60.5680   90.3542   12.3480 Cl      1  UNL1       -0.0790
      5 C          61.8690   88.3576   11.3130 C.ar    1  UNL1        0.1581
      6 C          62.1089   87.4158   10.1705 C.ar    1  UNL1        0.0694
      7 C          61.2877   87.5287    8.9204 C.ar    1  UNL1        0.1620
      8 F          61.5275   86.5869    7.7778 F       1  UNL1       -0.2026
      9 O          60.1260   89.9620    7.2036 O.2     1  UNL1       -0.1498
     10 S          59.4054   88.6964    7.5626 S.O2    1  UNL1        0.0773
     11 O          58.6848   87.4308    7.9215 O.2     1  UNL1       -0.1498
     12 N          58.5842   88.8094    6.3124 N.pl3   1  UNL1       -0.1922
     13 H          58.1865   88.0036    5.9103 H       1  UNL1        0.1758
     14 C          58.3691   90.1501    5.6750 C.ar    1  UNL1        0.2010
     15 N          57.0554   90.8613    5.5394 N.ar    1  UNL1       -0.1241
     16 N          57.3043   92.1657    4.8418 N.ar    1  UNL1       -0.1374
     17 C          58.7719   92.2607    4.5463 C.ar    1  UNL1        0.1605
     18 S          59.4300   91.0149    5.0612 S.2     1  UNL1       -0.0272
     19 O          62.6902   88.2446   12.5632 O.3     1  UNL1       -0.4526
     20 C          63.5799   89.3777   12.9810 C.ar    1  UNL1        0.1453
     21 C          63.8719   90.4945   12.0232 C.ar    1  UNL1        0.0374
     22 C          64.7616   91.6276   12.4411 C.ar    1  UNL1        0.0070
     23 C          65.3594   91.6438   13.8167 C.ar    1  UNL1        0.0716
     24 C          65.0674   90.5269   14.7745 C.ar    1  UNL1        0.0069
     25 C          64.1777   89.3939   14.3567 C.ar    1  UNL1        0.0361
     26 C          63.8857   88.2771   15.3146 C.ar    1  UNL1        0.0255
     27 C          64.3331   86.8809   14.9975 C.ar    1  UNL1        0.0242
     28 C          64.0412   85.7641   15.9554 C.ar    1  UNL1        0.1222
     29 N          63.3018   86.0434   17.2302 N.ar    1  UNL1       -0.1464
     30 N          62.8543   87.4396   17.5473 N.ar    1  UNL1       -0.1464
     31 C          63.1463   88.5564   16.5894 C.ar    1  UNL1        0.1222
     32 C          66.2491   92.7768   14.2345 C.3     1  UNL1        0.4186
     33 F          67.1388   93.9099   14.6524 F       1  UNL1       -0.1659
     34 F          65.8137   93.5618   13.0328 F       1  UNL1       -0.1659
     35 F          66.6844   91.9918   15.4362 F       1  UNL1       -0.1659
@<TRIPOS>BOND
     1     9    10    2
     2    10    11    2
     3    10    12    1
     4    12    14    1
     5    14    15   ar
     6    15    16   ar
     7    16    17   ar
     8    17    18   ar
     9    10     1    1
    10     1     2   ar
    11     2     3   ar
    12     3     4    1
    13     3     5   ar
    14     5    19    1
    15    19    20    1
    16    20    21   ar
    17    21    22   ar
    18    22    23   ar
    19    23    32    1
    20    32    33    1
    21    32    34    1
    22    32    35    1
    23    23    24   ar
    24    24    25   ar
    25    25    26    1
    26    26    27   ar
    27    27    28   ar
    28    28    29   ar
    29    29    30   ar
    30    30    31   ar
    31     5     6   ar
    32     6     7   ar
    33     7     8    1
    34    18    14   ar
    35     7     1   ar
    36    25    20   ar
    37    31    26   ar
    38    12    13    1
@<TRIPOS>MOLECULE
*****
 35 38 0 0 0
SMALL
GASTEIGER

@<TRIPOS>ATOM
      1 C          60.3570   87.7846    8.7952 C.ar    1  UNL1        0.1535
      2 C          60.9773   88.6048    9.8871 C.ar    1  UNL1        0.0370
      3 C          61.9078   87.9613   10.8720 C.ar    1  UNL1        0.0936
      4 CL         62.5282   88.7815   11.9641 Cl      1  UNL1       -0.0790
      5 C          62.2180   86.4976   10.7649 C.ar    1  UNL1        0.1581
      6 C          61.5977   85.6774    9.6730 C.ar    1  UNL1        0.0694
      7 C          60.6672   86.3209    8.6881 C.ar    1  UNL1        0.1620
      8 F          60.0468   85.5007    7.5960 F       1  UNL1       -0.2026
      9 O          58.6561   87.1456    7.7003 O.2     1  UNL1       -0.1498
     10 S          59.4264   88.4280    7.8102 S.O2    1  UNL1        0.0773
     11 O          60.1967   89.7104    7.9201 O.2     1  UNL1       -0.1498
     12 N          58.4958   89.0714    6.8253 N.pl3   1  UNL1       -0.1922
     13 H          57.5557   88.7834    6.7757 H       1  UNL1        0.1758
     14 C          58.9976   90.1536    5.9159 C.ar    1  UNL1        0.2010
     15 N          60.4105   90.3214    5.4408 N.ar    1  UNL1       -0.1241
     16 N          60.4607   91.5295    4.5532 N.ar    1  UNL1       -0.1374
     17 C          59.0788   92.1085    4.4797 C.ar    1  UNL1        0.1605
     18 S          58.1746   91.2581    5.3219 S.2     1  UNL1       -0.0272
     19 O          63.1486   85.8542   11.7499 O.3     1  UNL1       -0.4526
     20 C          62.9999   84.3990   12.0820 C.ar    1  UNL1        0.1453
     21 C          62.9359   83.3814   10.9819 C.ar    1  UNL1        0.0374
     22 C          62.7872   81.9262   11.3140 C.ar    1  UNL1        0.0070
     23 C          62.7024   81.4887   12.7463 C.ar    1  UNL1        0.0716
     24 C          62.7664   82.5063   13.8464 C.ar    1  UNL1        0.0069
     25 C          62.9151   83.9615   13.5143 C.ar    1  UNL1        0.0361
     26 C          62.9791   84.9791   14.6144 C.ar    1  UNL1        0.0255
     27 C          63.9661   86.1060   14.5373 C.ar    1  UNL1        0.0242
     28 C          64.0301   87.1236   15.6374 C.ar    1  UNL1        0.1222
     29 N          63.1071   87.0144   16.8147 N.ar    1  UNL1       -0.1464
     30 N          62.1200   85.8876   16.8919 N.ar    1  UNL1       -0.1464
     31 C          62.0560   84.8699   15.7918 C.ar    1  UNL1        0.1222
     32 C          62.5537   80.0335   13.0784 C.3     1  UNL1        0.4186
     33 F          62.4050   78.5782   13.4105 F       1  UNL1       -0.1659
     34 F          62.3522   80.3838   14.5229 F       1  UNL1       -0.1659
     35 F          62.7552   79.6832   11.6339 F       1  UNL1       -0.1659
@<TRIPOS>BOND
     1     9    10    2
     2    10    11    2
     3    10    12    1
     4    12    14    1
     5    14    15   ar
     6    15    16   ar
     7    16    17   ar
     8    17    18   ar
     9    10     1    1
    10     1     2   ar
    11     2     3   ar
    12     3     4    1
    13     3     5   ar
    14     5    19    1
    15    19    20    1
    16    20    21   ar
    17    21    22   ar
    18    22    23   ar
    19    23    32    1
    20    32    33    1
    21    32    34    1
    22    32    35    1
    23    23    24   ar
    24    24    25   ar
    25    25    26    1
    26    26    27   ar
    27    27    28   ar
    28    28    29   ar
    29    29    30   ar
    30    30    31   ar
    31     5     6   ar
    32     6     7   ar
    33     7     8    1
    34    18    14   ar
    35     7     1   ar
    36    25    20   ar
    37    31    26   ar
    38    12    13    1
@<TRIPOS>MOLECULE
*****
 35 38 0 0 0
SMALL
GASTEIGER

@<TRIPOS>ATOM
      1 C          64.5441   90.4073   13.3877 C.ar    1  UNL1        0.1535
      2 C          64.7448   89.2136   14.2735 C.ar    1  UNL1        0.0370
      3 C          64.0751   87.9129   13.9423 C.ar    1  UNL1        0.0936
      4 CL         64.2758   86.7191   14.8282 Cl      1  UNL1       -0.0790
      5 C          63.2048   87.8059   12.7253 C.ar    1  UNL1        0.1581
      6 C          63.0041   88.9996   11.8395 C.ar    1  UNL1        0.0694
      7 C          63.6738   90.3003   12.1707 C.ar    1  UNL1        0.1620
      8 F          63.4731   91.4941   11.2848 F       1  UNL1       -0.2026
      9 O          64.6068   91.6714   15.0900 O.2     1  UNL1       -0.1498
     10 S          65.2138   91.7080   13.7188 S.O2    1  UNL1        0.0773
     11 O          65.8208   91.7447   12.3476 O.2     1  UNL1       -0.1498
     12 N          65.8834   93.0087   14.0500 N.pl3   1  UNL1       -0.1922
     13 H          65.3828   93.8531   13.9754 H       1  UNL1        0.1758
     14 C          67.3159   93.0229   14.4949 C.ar    1  UNL1        0.2010
     15 N          68.4779   92.4422   13.7449 N.ar    1  UNL1       -0.1241
     16 N          69.7180   92.6807   14.5544 N.ar    1  UNL1       -0.1374
     17 C          69.3224   93.4089   15.8047 C.ar    1  UNL1        0.1605
     18 S          67.8378   93.6204   15.7679 S.2     1  UNL1       -0.0272
     19 O          62.5351   86.5051   12.3942 O.3     1  UNL1       -0.4526
     20 C          62.3795   86.0847   10.9628 C.ar    1  UNL1        0.1453
     21 C          63.1590   84.9168   10.4351 C.ar    1  UNL1        0.0374
     22 C          63.0033   84.4965    9.0036 C.ar    1  UNL1        0.0070
     23 C          62.0683   85.2440    8.0998 C.ar    1  UNL1        0.0716
     24 C          61.2888   86.4119    8.6275 C.ar    1  UNL1        0.0069
     25 C          61.4444   86.8323   10.0589 C.ar    1  UNL1        0.0361
     26 C          60.6650   88.0002   10.5866 C.ar    1  UNL1        0.0255
     27 C          60.7017   89.3143    9.8643 C.ar    1  UNL1        0.0242
     28 C          59.9222   90.4822   10.3919 C.ar    1  UNL1        0.1222
     29 N          59.1061   90.3360   11.6419 N.ar    1  UNL1       -0.1464
     30 N          59.0693   89.0219   12.3643 N.ar    1  UNL1       -0.1464
     31 C          59.8488   87.8540   11.8366 C.ar    1  UNL1        0.1222
     32 C          61.9127   84.8236    6.6684 C.3     1  UNL1        0.4186
     33 F          61.7571   84.4032    5.2369 F       1  UNL1       -0.1659
     34 F          63.3965   84.6307    6.5638 F       1  UNL1       -0.1659
     35 F          60.4289   85.0165    6.7730 F       1  UNL1       -0.1659
@<TRIPOS>BOND
     1     9    10    2
     2    10    11    2
     3    10    12    1
     4    12    14    1
     5    14    15   ar
     6    15    16   ar
     7    16    17   ar
     8    17    18   ar
     9    10     1    1
    10     1     2   ar
    11     2     3   ar
    12     3     4    1
    13     3     5   ar
    14     5    19    1
    15    19    20    1
    16    20    21   ar
    17    21    22   ar
    18    22    23   ar
    19    23    32    1
    20    32    33    1
    21    32    34    1
    22    32    35    1
    23    23    24   ar
    24    24    25   ar
    25    25    26    1
    26    26    27   ar
    27    27    28   ar
    28    28    29   ar
    29    29    30   ar
    30    30    31   ar
    31     5     6   ar
    32     6     7   ar
    33     7     8    1
    34    18    14   ar
    35     7     1   ar
    36    25    20   ar
    37    31    26   ar
    38    12    13    1
@<TRIPOS>MOLECULE
*****
 35 38 0 0 0
SMALL
GASTEIGER

@<TRIPOS>ATOM
      1 C          63.7081   86.6683   13.5545 C.ar    1  UNL1        0.1535
      2 C          63.1027   87.4297   12.4127 C.ar    1  UNL1        0.0370
      3 C          63.1703   88.9279   12.3907 C.ar    1  UNL1        0.0936
      4 CL         62.5649   89.6894   11.2489 Cl      1  UNL1       -0.0790
      5 C          63.8434   89.6648   13.5106 C.ar    1  UNL1        0.1581
      6 C          64.4487   88.9034   14.6524 C.ar    1  UNL1        0.0694
      7 C          64.3811   87.4052   14.6743 C.ar    1  UNL1        0.1620
      8 F          64.9865   86.6437   15.8162 F       1  UNL1       -0.2026
      9 O          62.2125   85.2277   13.1211 O.2     1  UNL1       -0.1498
     10 S          63.6405   85.1699   13.5765 S.O2    1  UNL1        0.0773
     11 O          65.0685   85.1121   14.0319 O.2     1  UNL1       -0.1498
     12 N          63.5728   83.6716   13.5985 N.pl3   1  UNL1       -0.1922
     13 H          63.4448   83.1971   14.4515 H       1  UNL1        0.1758
     14 C          63.7002   82.8962   12.3207 C.ar    1  UNL1        0.2010
     15 N          64.6589   83.1875   11.2044 N.ar    1  UNL1       -0.1241
     16 N          64.4425   82.1648   10.1288 N.ar    1  UNL1       -0.1374
     17 C          63.3500   81.2413   10.5802 C.ar    1  UNL1        0.1605
     18 S          62.8912   81.6934   11.9350 S.2     1  UNL1       -0.0272
     19 O          63.9110   91.1632   13.4886 O.3     1  UNL1       -0.4526
     20 C          64.7107   91.8624   12.4296 C.ar    1  UNL1        0.1453
     21 C          64.2011   91.9194   11.0200 C.ar    1  UNL1        0.0374
     22 C          65.0010   92.6187    9.9610 C.ar    1  UNL1        0.0070
     23 C          66.3104   93.2609   10.3117 C.ar    1  UNL1        0.0716
     24 C          66.8200   93.2038   11.7213 C.ar    1  UNL1        0.0069
     25 C          66.0202   92.5046   12.7803 C.ar    1  UNL1        0.0361
     26 C          66.5298   92.4476   14.1899 C.ar    1  UNL1        0.0255
     27 C          67.9836   92.1871   14.4519 C.ar    1  UNL1        0.0242
     28 C          68.4932   92.1300   15.8615 C.ar    1  UNL1        0.1222
     29 N          67.5491   92.3336   17.0091 N.ar    1  UNL1       -0.1464
     30 N          66.0952   92.5942   16.7472 N.ar    1  UNL1       -0.1464
     31 C          65.5856   92.6512   15.3376 C.ar    1  UNL1        0.1222
     32 C          67.1102   93.9601    9.2527 C.3     1  UNL1        0.4186
     33 F          67.9100   94.6593    8.1937 F       1  UNL1       -0.1659
     34 F          66.3819   95.2380    9.5465 F       1  UNL1       -0.1659
     35 F          67.8384   92.6821    8.9590 F       1  UNL1       -0.1659
@<TRIPOS>BOND
     1     9    10    2
     2    10    11    2
     3    10    12    1
     4    12    14    1
     5    14    15   ar
     6    15    16   ar
     7    16    17   ar
     8    17    18   ar
     9    10     1    1
    10     1     2   ar
    11     2     3   ar
    12     3     4    1
    13     3     5   ar
    14     5    19    1
    15    19    20    1
    16    20    21   ar
    17    21    22   ar
    18    22    23   ar
    19    23    32    1
    20    32    33    1
    21    32    34    1
    22    32    35    1
    23    23    24   ar
    24    24    25   ar
    25    25    26    1
    26    26    27   ar
    27    27    28   ar
    28    28    29   ar
    29    29    30   ar
    30    30    31   ar
    31     5     6   ar
    32     6     7   ar
    33     7     8    1
    34    18    14   ar
    35     7     1   ar
    36    25    20   ar
    37    31    26   ar
    38    12    13    1
@<TRIPOS>MOLECULE
*****
 35 38 0 0 0
SMALL
GASTEIGER

@<TRIPOS>ATOM
      1 C          62.8029   87.9332   11.5373 C.ar    1  UNL1        0.1535
      2 C          62.5726   89.0653   10.5807 C.ar    1  UNL1        0.0370
      3 C          63.0579   90.4437   10.9193 C.ar    1  UNL1        0.0936
      4 CL         62.8277   91.5759    9.9627 Cl      1  UNL1       -0.0790
      5 C          63.7735   90.6898   12.2144 C.ar    1  UNL1        0.1581
      6 C          64.0038   89.5576   13.1710 C.ar    1  UNL1        0.0694
      7 C          63.5185   88.1793   12.8325 C.ar    1  UNL1        0.1620
      8 F          63.7487   87.0470   13.7891 F       1  UNL1       -0.2026
      9 O          62.2865   86.2075   12.6577 O.2     1  UNL1       -0.1498
     10 S          62.3176   86.5548   11.1988 S.O2    1  UNL1        0.0773
     11 O          62.3487   86.9020    9.7399 O.2     1  UNL1       -0.1498
     12 N          61.8323   85.1764   10.8603 N.pl3   1  UNL1       -0.1922
     13 H          60.8954   85.0364   10.5923 H       1  UNL1        0.1758
     14 C          62.7745   84.0113   10.9302 C.ar    1  UNL1        0.2010
     15 N          63.8731   83.7060    9.9556 N.ar    1  UNL1       -0.1241
     16 N          64.5610   82.4530   10.4100 N.ar    1  UNL1       -0.1374
     17 C          63.8877   81.9838   11.6657 C.ar    1  UNL1        0.1605
     18 S          62.7835   82.9469   11.9872 S.2     1  UNL1       -0.0272
     19 O          64.2588   92.0682   12.5530 O.3     1  UNL1       -0.4526
     20 C          65.4245   92.2463   13.4800 C.ar    1  UNL1        0.1453
     21 C          65.3179   91.8107   14.9114 C.ar    1  UNL1        0.0374
     22 C          66.4837   91.9888   15.8384 C.ar    1  UNL1        0.0070
     23 C          67.7560   92.6025   15.3340 C.ar    1  UNL1        0.0716
     24 C          67.8627   93.0381   13.9026 C.ar    1  UNL1        0.0069
     25 C          66.6970   92.8600   12.9756 C.ar    1  UNL1        0.0361
     26 C          66.8036   93.2956   11.5442 C.ar    1  UNL1        0.0255
     27 C          67.5859   92.4708   10.5655 C.ar    1  UNL1        0.0242
     28 C          67.6925   92.9064    9.1342 C.ar    1  UNL1        0.1222
     29 N          67.0170   94.1668    8.6814 N.ar    1  UNL1       -0.1464
     30 N          66.2347   94.9917    9.6601 N.ar    1  UNL1       -0.1464
     31 C          66.1280   94.5561   11.0915 C.ar    1  UNL1        0.1222
     32 C          68.9217   92.7806   16.2610 C.3     1  UNL1        0.4186
     33 F          70.0875   92.9587   17.1880 F       1  UNL1       -0.1659
     34 F          68.3465   91.7467   17.1830 F       1  UNL1       -0.1659
     35 F          69.4970   93.8145   15.3390 F       1  UNL1       -0.1659
@<TRIPOS>BOND
     1     9    10    2
     2    10    11    2
     3    10    12    1
     4    12    14    1
     5    14    15   ar
     6    15    16   ar
     7    16    17   ar
     8    17    18   ar
     9    10     1    1
    10     1     2   ar
    11     2     3   ar
    12     3     4    1
    13     3     5   ar
    14     5    19    1
    15    19    20    1
    16    20    21   ar
    17    21    22   ar
    18    22    23   ar
    19    23    32    1
    20    32    33    1
    21    32    34    1
    22    32    35    1
    23    23    24   ar
    24    24    25   ar
    25    25    26    1
    26    26    27   ar
    27    27    28   ar
    28    28    29   ar
    29    29    30   ar
    30    30    31   ar
    31     5     6   ar
    32     6     7   ar
    33     7     8    1
    34    18    14   ar
    35     7     1   ar
    36    25    20   ar
    37    31    26   ar
    38    12    13    1
