@<TRIPOS>MOLECULE
*****
 39 43 0 0 0
SMALL
GASTEIGER

@<TRIPOS>ATOM
      1 C          63.1815   87.4480   12.5788 C.3     1  UNL1        0.1522
      2 C          63.2745   85.9892   12.9152 C.3     1  UNL1        0.0313
      3 C          64.0298   85.8581   14.2046 C.3     1  UNL1        0.0264
      4 C          64.4035   87.2359   14.6650 C.3     1  UNL1        0.0942
      5 N          63.8792   88.2185   13.6602 N.am    1  UNL1       -0.2713
      6 C          64.0268   89.7098   13.7253 C.2     1  UNL1        0.2527
      7 O          63.4466   90.5690   12.6412 O.2     1  UNL1       -0.2726
      8 O          63.1425   89.1811   10.6435 O.2     1  UNL1       -0.2730
      9 C          62.5089   88.0335   11.3726 C.2     1  UNL1        0.2442
     10 N          61.2026   87.4714   10.8955 N.am    1  UNL1       -0.2826
     11 H          60.7867   86.7182   11.3740 H       1  UNL1        0.1549
     12 C          60.5299   88.0569    9.6893 C.ar    1  UNL1        0.0505
     13 C          59.9787   87.1541    8.6258 C.ar    1  UNL1        0.0178
     14 C          59.3061   87.7396    7.4197 C.ar    1  UNL1        0.0388
     15 C          59.1847   89.2279    7.2771 C.ar    1  UNL1        0.1454
     16 C          59.7359   90.1306    8.3407 C.ar    1  UNL1        0.0388
     17 C          60.4085   89.5451    9.5468 C.ar    1  UNL1        0.0178
     18 O          58.5120   89.8133    6.0710 O.3     1  UNL1       -0.4535
     19 C          59.2692   90.7383    5.1649 C.ar    1  UNL1        0.1454
     20 C          60.7530   90.5850    5.0069 C.ar    1  UNL1        0.0398
     21 C          61.5103   91.5101    4.1008 C.ar    1  UNL1        0.0328
     22 C          60.7837   92.5882    3.3527 C.ar    1  UNL1        0.1403
     23 F          61.5410   93.5132    2.4466 F       1  UNL1       -0.2042
     24 C          59.3000   92.7415    3.5107 C.ar    1  UNL1        0.0328
     25 C          58.5427   91.8165    4.4168 C.ar    1  UNL1        0.0398
     26 C          64.3543   84.5746   14.9098 C.3     1  UNL1        0.0281
     27 C          63.7788   83.2807   14.4150 C.ar    1  UNL1       -0.0220
     28 C          62.4357   82.8227   14.9014 C.ar    1  UNL1       -0.0020
     29 C          61.8602   81.5289   14.4066 C.ar    1  UNL1        0.0293
     30 C          62.6277   80.6931   13.4255 C.ar    1  UNL1        0.1401
     31 F          62.0522   79.3993   12.9307 F       1  UNL1       -0.2042
     32 C          63.9708   81.1512   12.9392 C.ar    1  UNL1        0.0293
     33 C          64.5462   82.4450   13.4339 C.ar    1  UNL1       -0.0020
     34 C          64.7546   90.3420   14.8745 C.3     1  UNL1        0.2340
     35 N          65.7653   91.4207   14.6200 N.ar    1  UNL1       -0.1607
     36 N          65.4750   92.7939   14.0908 N.ar    1  UNL1       -0.1486
     37 C          66.7741   93.5375   13.9938 C.ar    1  UNL1        0.1442
     38 C          67.8672   92.6239   14.4631 C.ar    1  UNL1        0.1442
     39 N          67.2438   91.3157   14.8501 N.ar    1  UNL1       -0.1486
@<TRIPOS>BOND
     1     8     9    2
     2     9    10   am
     3    10    12    1
     4    12    13   ar
     5    13    14   ar
     6    14    15   ar
     7    15    18    1
     8    18    19    1
     9    19    20   ar
    10    20    21   ar
    11    21    22   ar
    12    22    23    1
    13    22    24   ar
    14    24    25   ar
    15    15    16   ar
    16    16    17   ar
    17     1     9    1
    18     1     2    1
    19     2     3    1
    20     3    26    1
    21    26    27    1
    22    27    28   ar
    23    28    29   ar
    24    29    30   ar
    25    30    31    1
    26    30    32   ar
    27    32    33   ar
    28     3     4    1
    29     4     5    1
    30     5     6   am
    31     6     7    2
    32     6    34    1
    33    34    35    1
    34    35    36   ar
    35    36    37   ar
    36    37    38   ar
    37    38    39   ar
    38    17    12   ar
    39     5     1    1
    40    39    35   ar
    41    25    19   ar
    42    33    27   ar
    43    10    11    1
@<TRIPOS>MOLECULE
*****
 39 43 0 0 0
SMALL
GASTEIGER

@<TRIPOS>ATOM
      1 C          60.9256   88.7639   10.0584 C.3     1  UNL1        0.1522
      2 C          60.0742   89.4446    9.0280 C.3     1  UNL1        0.0313
      3 C          59.6520   88.4150    8.0221 C.3     1  UNL1        0.0264
      4 C          60.2425   87.0980    8.4310 C.3     1  UNL1        0.0942
      5 N          61.0296   87.3137    9.6895 N.am    1  UNL1       -0.2713
      6 C          61.7877   86.2637   10.4462 C.2     1  UNL1        0.2527
      7 O          62.5323   86.6302   11.6956 O.2     1  UNL1       -0.2726
      8 O          60.7057   90.0904   12.2815 O.2     1  UNL1       -0.2730
      9 C          61.5615   89.4186   11.2489 C.2     1  UNL1        0.2442
     10 N          63.0530   89.4015   11.4067 N.am    1  UNL1       -0.2826
     11 H          63.6147   88.9606   10.7290 H       1  UNL1        0.1549
     12 C          63.6888   90.0563   12.5972 C.ar    1  UNL1        0.0505
     13 C          64.3743   91.3820   12.4470 C.ar    1  UNL1        0.0178
     14 C          65.0100   92.0366   13.6375 C.ar    1  UNL1        0.0388
     15 C          64.9604   91.3656   14.9781 C.ar    1  UNL1        0.1454
     16 C          64.2749   90.0398   15.1282 C.ar    1  UNL1        0.0388
     17 C          63.6392   89.3852   13.9378 C.ar    1  UNL1        0.0178
     18 O          65.5962   92.0203   16.1685 O.3     1  UNL1       -0.4535
     19 C          66.9459   92.6618   16.0398 C.ar    1  UNL1        0.1454
     20 C          67.0798   94.0011   15.3777 C.ar    1  UNL1        0.0398
     21 C          68.4296   94.6426   15.2490 C.ar    1  UNL1        0.0328
     22 C          69.6455   93.9449   15.7825 C.ar    1  UNL1        0.1403
     23 F          70.9952   94.5864   15.6538 F       1  UNL1       -0.2042
     24 C          69.5117   92.6056   16.4447 C.ar    1  UNL1        0.0328
     25 C          68.1619   91.9641   16.5734 C.ar    1  UNL1        0.0398
     26 C          58.7905   88.6594    6.8187 C.3     1  UNL1        0.0281
     27 C          59.0261   89.8668    5.9604 C.ar    1  UNL1       -0.0220
     28 C          60.4151   90.2044    5.5060 C.ar    1  UNL1       -0.0020
     29 C          60.6507   91.4119    4.6477 C.ar    1  UNL1        0.0293
     30 C          59.4972   92.2817    4.2440 C.ar    1  UNL1        0.1401
     31 F          59.7328   93.4891    3.3858 F       1  UNL1       -0.2042
     32 C          58.1081   91.9440    4.6985 C.ar    1  UNL1        0.0293
     33 C          57.8726   90.7366    5.5567 C.ar    1  UNL1       -0.0020
     34 C          61.8010   84.8469    9.9535 C.3     1  UNL1        0.2340
     35 N          62.7175   83.8416   10.5856 N.ar    1  UNL1       -0.1607
     36 N          62.5156   83.1783   11.9156 N.ar    1  UNL1       -0.1486
     37 C          63.6701   82.2498   12.1506 C.ar    1  UNL1        0.1442
     38 C          64.5854   82.3394   10.9656 C.ar    1  UNL1        0.1442
     39 N          63.9967   83.3232    9.9984 N.ar    1  UNL1       -0.1486
@<TRIPOS>BOND
     1     8     9    2
     2     9    10   am
     3    10    12    1
     4    12    13   ar
     5    13    14   ar
     6    14    15   ar
     7    15    18    1
     8    18    19    1
     9    19    20   ar
    10    20    21   ar
    11    21    22   ar
    12    22    23    1
    13    22    24   ar
    14    24    25   ar
    15    15    16   ar
    16    16    17   ar
    17     1     9    1
    18     1     2    1
    19     2     3    1
    20     3    26    1
    21    26    27    1
    22    27    28   ar
    23    28    29   ar
    24    29    30   ar
    25    30    31    1
    26    30    32   ar
    27    32    33   ar
    28     3     4    1
    29     4     5    1
    30     5     6   am
    31     6     7    2
    32     6    34    1
    33    34    35    1
    34    35    36   ar
    35    36    37   ar
    36    37    38   ar
    37    38    39   ar
    38    17    12   ar
    39     5     1    1
    40    39    35   ar
    41    25    19   ar
    42    33    27   ar
    43    10    11    1
@<TRIPOS>MOLECULE
*****
 39 43 0 0 0
SMALL
GASTEIGER

@<TRIPOS>ATOM
      1 C          60.4383   87.6796    8.7697 C.3     1  UNL1        0.1522
      2 C          60.9075   86.2571    8.6902 C.3     1  UNL1        0.0313
      3 C          61.3499   85.8377   10.0608 C.3     1  UNL1        0.0264
      4 C          61.1541   87.0011   10.9873 C.3     1  UNL1        0.0942
      5 N          60.5907   88.1394   10.1894 N.am    1  UNL1       -0.2713
      6 C          60.2411   89.4988   10.7181 C.2     1  UNL1        0.2527
      7 O          59.6832   90.5418    9.7956 O.2     1  UNL1       -0.2726
      8 O          58.5924   88.1491    7.0028 O.2     1  UNL1       -0.2730
      9 C          59.9095   88.4986    7.6296 C.2     1  UNL1        0.2442
     10 N          60.6979   89.6670    7.1164 N.am    1  UNL1       -0.2826
     11 H          61.5624   89.8963    7.5279 H       1  UNL1        0.1549
     12 C          60.1691   90.4859    5.9763 C.ar    1  UNL1        0.0505
     13 C          58.6984   90.7607    5.8690 C.ar    1  UNL1        0.0178
     14 C          58.1697   91.5796    4.7290 C.ar    1  UNL1        0.0388
     15 C          59.1117   92.1238    3.6962 C.ar    1  UNL1        0.1454
     16 C          60.5824   91.8490    3.8035 C.ar    1  UNL1        0.0388
     17 C          61.1111   91.0301    4.9436 C.ar    1  UNL1        0.0178
     18 O          58.5829   92.9427    2.5561 O.3     1  UNL1       -0.4535
     19 C          59.5026   93.3735    1.4522 C.ar    1  UNL1        0.1454
     20 C          59.7802   92.4493    0.3038 C.ar    1  UNL1        0.0398
     21 C          60.6999   92.8801   -0.8002 C.ar    1  UNL1        0.0328
     22 C          61.3420   94.2350   -0.7556 C.ar    1  UNL1        0.1403
     23 F          62.2616   94.6657   -1.8596 F       1  UNL1       -0.2042
     24 C          61.0644   95.1591    0.3928 C.ar    1  UNL1        0.0328
     25 C          60.1447   94.7284    1.4967 C.ar    1  UNL1        0.0398
     26 C          61.8928   84.4914   10.4386 C.3     1  UNL1        0.0281
     27 C          62.5558   84.2966   11.7700 C.ar    1  UNL1       -0.0220
     28 C          62.6106   82.9309   12.3878 C.ar    1  UNL1       -0.0020
     29 C          63.2735   82.7361   13.7192 C.ar    1  UNL1        0.0293
     30 C          63.8816   83.9071   14.4326 C.ar    1  UNL1        0.1401
     31 F          64.5446   83.7124   15.7640 F       1  UNL1       -0.2042
     32 C          63.8268   85.2729   13.8147 C.ar    1  UNL1        0.0293
     33 C          63.1639   85.4676   12.4834 C.ar    1  UNL1       -0.0020
     34 C          60.4494   89.8154   12.1695 C.3     1  UNL1        0.2340
     35 N          61.8213   90.1510   12.6746 N.ar    1  UNL1       -0.1607
     36 N          62.8938   90.8645   11.9061 N.ar    1  UNL1       -0.1486
     37 C          64.0970   90.9864   12.7935 C.ar    1  UNL1        0.1442
     38 C          63.7681   90.3482   14.1105 C.ar    1  UNL1        0.1442
     39 N          62.3617   89.8319   14.0371 N.ar    1  UNL1       -0.1486
@<TRIPOS>BOND
     1     8     9    2
     2     9    10   am
     3    10    12    1
     4    12    13   ar
     5    13    14   ar
     6    14    15   ar
     7    15    18    1
     8    18    19    1
     9    19    20   ar
    10    20    21   ar
    11    21    22   ar
    12    22    23    1
    13    22    24   ar
    14    24    25   ar
    15    15    16   ar
    16    16    17   ar
    17     1     9    1
    18     1     2    1
    19     2     3    1
    20     3    26    1
    21    26    27    1
    22    27    28   ar
    23    28    29   ar
    24    29    30   ar
    25    30    31    1
    26    30    32   ar
    27    32    33   ar
    28     3     4    1
    29     4     5    1
    30     5     6   am
    31     6     7    2
    32     6    34    1
    33    34    35    1
    34    35    36   ar
    35    36    37   ar
    36    37    38   ar
    37    38    39   ar
    38    17    12   ar
    39     5     1    1
    40    39    35   ar
    41    25    19   ar
    42    33    27   ar
    43    10    11    1
@<TRIPOS>MOLECULE
*****
 39 43 0 0 0
SMALL
GASTEIGER

@<TRIPOS>ATOM
      1 C          61.4170   89.3687   10.0058 C.3     1  UNL1        0.1522
      2 C          60.5575   89.8684    8.8826 C.3     1  UNL1        0.0313
      3 C          59.9352   88.6800    8.2112 C.3     1  UNL1        0.0264
      4 C          60.4102   87.4460    8.9196 C.3     1  UNL1        0.0942
      5 N          61.3259   87.8717   10.0287 N.am    1  UNL1       -0.2713
      6 C          62.0275   86.9603   10.9916 C.2     1  UNL1        0.2527
      7 O          62.9172   87.5337   12.0544 O.2     1  UNL1       -0.2726
      8 O          61.7445   90.4566   12.3424 O.2     1  UNL1       -0.2730
      9 C          62.2256   90.2173   10.9419 C.2     1  UNL1        0.2442
     10 N          63.5152   90.8264   10.4775 N.am    1  UNL1       -0.2826
     11 H          63.8310   90.6693    9.5583 H       1  UNL1        0.1549
     12 C          64.3239   91.6750   11.4136 C.ar    1  UNL1        0.0505
     13 C          64.3877   91.3309   12.8722 C.ar    1  UNL1        0.0178
     14 C          65.1963   92.1795   13.8081 C.ar    1  UNL1        0.0388
     15 C          65.9410   93.3721   13.2855 C.ar    1  UNL1        0.1454
     16 C          65.8772   93.7161   11.8270 C.ar    1  UNL1        0.0388
     17 C          65.0686   92.8676   10.8910 C.ar    1  UNL1        0.0178
     18 O          66.7497   94.2206   14.2216 O.3     1  UNL1       -0.4535
     19 C          67.7998   93.5904   15.0876 C.ar    1  UNL1        0.1454
     20 C          67.7618   92.1158   15.3596 C.ar    1  UNL1        0.0398
     21 C          68.8121   91.4856   16.2256 C.ar    1  UNL1        0.0328
     22 C          69.9002   92.3300   16.8196 C.ar    1  UNL1        0.1403
     23 F          70.9503   91.6998   17.6856 F       1  UNL1       -0.2042
     24 C          69.9382   93.8047   16.5476 C.ar    1  UNL1        0.0328
     25 C          68.8880   94.4349   15.6816 C.ar    1  UNL1        0.0398
     26 C          59.0019   88.7189    7.0376 C.3     1  UNL1        0.0281
     27 C          59.0726   89.8547    6.0604 C.ar    1  UNL1       -0.0220
     28 C          57.8202   90.5732    5.6538 C.ar    1  UNL1       -0.0020
     29 C          57.8909   91.7091    4.6766 C.ar    1  UNL1        0.0293
     30 C          59.2139   92.1263    4.1060 C.ar    1  UNL1        0.1401
     31 F          59.2846   93.2621    3.1288 F       1  UNL1       -0.2042
     32 C          60.4663   91.4077    4.5127 C.ar    1  UNL1        0.0293
     33 C          60.3955   90.2719    5.4898 C.ar    1  UNL1       -0.0020
     34 C          61.8394   85.4755   10.8916 C.3     1  UNL1        0.2340
     35 N          62.4822   84.5685   11.8987 N.ar    1  UNL1       -0.1607
     36 N          62.4662   84.7520   13.3874 N.ar    1  UNL1       -0.1486
     37 C          63.2280   83.6157   14.0026 C.ar    1  UNL1        0.1442
     38 C          63.7148   82.7301   12.8942 C.ar    1  UNL1        0.1442
     39 N          63.2539   83.3189   11.5939 N.ar    1  UNL1       -0.1486
@<TRIPOS>BOND
     1     8     9    2
     2     9    10   am
     3    10    12    1
     4    12    13   ar
     5    13    14   ar
     6    14    15   ar
     7    15    18    1
     8    18    19    1
     9    19    20   ar
    10    20    21   ar
    11    21    22   ar
    12    22    23    1
    13    22    24   ar
    14    24    25   ar
    15    15    16   ar
    16    16    17   ar
    17     1     9    1
    18     1     2    1
    19     2     3    1
    20     3    26    1
    21    26    27    1
    22    27    28   ar
    23    28    29   ar
    24    29    30   ar
    25    30    31    1
    26    30    32   ar
    27    32    33   ar
    28     3     4    1
    29     4     5    1
    30     5     6   am
    31     6     7    2
    32     6    34    1
    33    34    35    1
    34    35    36   ar
    35    36    37   ar
    36    37    38   ar
    37    38    39   ar
    38    17    12   ar
    39     5     1    1
    40    39    35   ar
    41    25    19   ar
    42    33    27   ar
    43    10    11    1
@<TRIPOS>MOLECULE
*****
 39 43 0 0 0
SMALL
GASTEIGER

@<TRIPOS>ATOM
      1 C          60.1367   94.1913    0.6684 C.3     1  UNL1        0.1522
      2 C          59.0905   94.8804   -0.1565 C.3     1  UNL1        0.0313
      3 C          59.7706   95.9291   -0.9859 C.3     1  UNL1        0.0264
      4 C          61.2372   95.8880   -0.6735 C.3     1  UNL1        0.0942
      5 N          61.4634   94.8140    0.3489 N.am    1  UNL1       -0.2713
      6 C          62.7844   94.4301    0.9469 C.2     1  UNL1        0.2527
      7 O          62.8559   93.3300    1.9641 O.2     1  UNL1       -0.2726
      8 O          59.7752   91.6638    1.1495 O.2     1  UNL1       -0.2730
      9 C          59.8981   93.0753    1.6420 C.2     1  UNL1        0.2442
     10 N          59.7824   93.3709    3.1080 N.am    1  UNL1       -0.2826
     11 H          59.8631   94.2973    3.4313 H       1  UNL1        0.1549
     12 C          59.5437   92.2549    4.0816 C.ar    1  UNL1        0.0505
     13 C          60.6958   91.4305    4.5746 C.ar    1  UNL1        0.0178
     14 C          60.4571   90.3146    5.5481 C.ar    1  UNL1        0.0388
     15 C          59.0664   90.0232    6.0286 C.ar    1  UNL1        0.1454
     16 C          57.9143   90.8476    5.5356 C.ar    1  UNL1        0.0388
     17 C          58.1530   91.9635    4.5621 C.ar    1  UNL1        0.0178
     18 O          58.8277   88.9072    7.0022 O.3     1  UNL1       -0.4535
     19 C          59.8297   88.6276    8.0829 C.ar    1  UNL1        0.1454
     20 C          60.2008   89.7049    9.0585 C.ar    1  UNL1        0.0398
     21 C          61.2027   89.4252   10.1393 C.ar    1  UNL1        0.0328
     22 C          61.8335   88.0684   10.2443 C.ar    1  UNL1        0.1403
     23 F          62.8354   87.7889   11.3250 F       1  UNL1       -0.2042
     24 C          61.4624   86.9912    9.2687 C.ar    1  UNL1        0.0328
     25 C          60.4605   87.2708    8.1880 C.ar    1  UNL1        0.0398
     26 C          59.1016   96.8560   -1.9571 C.3     1  UNL1        0.0281
     27 C          57.9429   96.3731   -2.7782 C.ar    1  UNL1       -0.0220
     28 C          56.5472   96.4746   -2.2383 C.ar    1  UNL1       -0.0020
     29 C          55.3885   95.9917   -3.0594 C.ar    1  UNL1        0.0293
     30 C          55.6256   95.4073   -4.4204 C.ar    1  UNL1        0.1401
     31 F          54.4669   94.9244   -5.2415 F       1  UNL1       -0.2042
     32 C          57.0214   95.3058   -4.9603 C.ar    1  UNL1        0.0293
     33 C          58.1800   95.7887   -4.1392 C.ar    1  UNL1       -0.0020
     34 C          64.0340   95.1462    0.5276 C.3     1  UNL1        0.2340
     35 N          64.3619   95.2926   -0.9288 N.ar    1  UNL1       -0.1607
     36 N          64.1024   94.2729   -1.9978 N.ar    1  UNL1       -0.1486
     37 C          64.5870   94.8345   -3.3015 C.ar    1  UNL1        0.1442
     38 C          65.1459   96.2013   -3.0382 C.ar    1  UNL1        0.1442
     39 N          65.0068   96.4845   -1.5718 N.ar    1  UNL1       -0.1486
@<TRIPOS>BOND
     1     8     9    2
     2     9    10   am
     3    10    12    1
     4    12    13   ar
     5    13    14   ar
     6    14    15   ar
     7    15    18    1
     8    18    19    1
     9    19    20   ar
    10    20    21   ar
    11    21    22   ar
    12    22    23    1
    13    22    24   ar
    14    24    25   ar
    15    15    16   ar
    16    16    17   ar
    17     1     9    1
    18     1     2    1
    19     2     3    1
    20     3    26    1
    21    26    27    1
    22    27    28   ar
    23    28    29   ar
    24    29    30   ar
    25    30    31    1
    26    30    32   ar
    27    32    33   ar
    28     3     4    1
    29     4     5    1
    30     5     6   am
    31     6     7    2
    32     6    34    1
    33    34    35    1
    34    35    36   ar
    35    36    37   ar
    36    37    38   ar
    37    38    39   ar
    38    17    12   ar
    39     5     1    1
    40    39    35   ar
    41    25    19   ar
    42    33    27   ar
    43    10    11    1
@<TRIPOS>MOLECULE
*****
 39 43 0 0 0
SMALL
GASTEIGER

@<TRIPOS>ATOM
      1 C          63.6749   89.9588   13.3444 C.3     1  UNL1        0.1522
      2 C          64.0960   91.1976   14.0779 C.3     1  UNL1        0.0313
      3 C          64.7545   90.7767   15.3583 C.3     1  UNL1        0.0264
      4 C          64.7404   89.2779   15.4160 C.3     1  UNL1        0.0942
      5 N          64.0731   88.7724   14.1713 N.am    1  UNL1       -0.2713
      6 C          63.8442   87.3332   13.8159 C.2     1  UNL1        0.2527
      7 O          63.1596   86.9781   12.5294 O.2     1  UNL1       -0.2726
      8 O          63.5449   90.6621   10.8467 O.2     1  UNL1       -0.2730
      9 C          62.9779   89.9143   12.0168 C.2     1  UNL1        0.2442
     10 N          61.7140   89.1221   11.8595 N.am    1  UNL1       -0.2826
     11 H          61.3419   88.6312   12.6275 H       1  UNL1        0.1549
     12 C          61.0170   89.0776   10.5320 C.ar    1  UNL1        0.0505
     13 C          61.0523   87.8247    9.7080 C.ar    1  UNL1        0.0178
     14 C          60.3553   87.7803    8.3805 C.ar    1  UNL1        0.0388
     15 C          59.6231   88.9887    7.8771 C.ar    1  UNL1        0.1454
     16 C          59.5878   90.2416    8.7011 C.ar    1  UNL1        0.0388
     17 C          60.2848   90.2860   10.0285 C.ar    1  UNL1        0.0178
     18 O          58.9261   88.9442    6.5495 O.3     1  UNL1       -0.4535
     19 C          59.0467   90.0991    5.6000 C.ar    1  UNL1        0.1454
     20 C          57.8185   90.8376    5.1572 C.ar    1  UNL1        0.0398
     21 C          57.9392   91.9925    4.2077 C.ar    1  UNL1        0.0328
     22 C          59.2882   92.4090    3.7009 C.ar    1  UNL1        0.1403
     23 F          59.4089   93.5638    2.7514 F       1  UNL1       -0.2042
     24 C          60.5164   91.6705    4.1437 C.ar    1  UNL1        0.0328
     25 C          60.3958   90.5156    5.0932 C.ar    1  UNL1        0.0398
     26 C          65.3267   91.6937   16.3984 C.3     1  UNL1        0.0281
     27 C          66.6195   92.4087   16.1385 C.ar    1  UNL1       -0.0220
     28 C          66.6505   93.5901   15.2147 C.ar    1  UNL1       -0.0020
     29 C          67.9433   94.3051   14.9547 C.ar    1  UNL1        0.0293
     30 C          69.2049   93.8387   15.6186 C.ar    1  UNL1        0.1401
     31 F          70.4977   94.5537   15.3586 F       1  UNL1       -0.2042
     32 C          69.1739   92.6573   16.5424 C.ar    1  UNL1        0.0293
     33 C          67.8812   91.9423   16.8023 C.ar    1  UNL1       -0.0020
     34 C          64.3001   86.2491   14.7470 C.3     1  UNL1        0.2340
     35 N          63.7614   84.8571   14.5984 N.ar    1  UNL1       -0.1607
     36 N          64.4794   83.6954   13.9779 N.ar    1  UNL1       -0.1486
     37 C          63.5719   82.5027   14.0402 C.ar    1  UNL1        0.1442
     38 C          62.2930   82.9273   14.6990 C.ar    1  UNL1        0.1442
     39 N          62.4101   84.3824   15.0440 N.ar    1  UNL1       -0.1486
@<TRIPOS>BOND
     1     8     9    2
     2     9    10   am
     3    10    12    1
     4    12    13   ar
     5    13    14   ar
     6    14    15   ar
     7    15    18    1
     8    18    19    1
     9    19    20   ar
    10    20    21   ar
    11    21    22   ar
    12    22    23    1
    13    22    24   ar
    14    24    25   ar
    15    15    16   ar
    16    16    17   ar
    17     1     9    1
    18     1     2    1
    19     2     3    1
    20     3    26    1
    21    26    27    1
    22    27    28   ar
    23    28    29   ar
    24    29    30   ar
    25    30    31    1
    26    30    32   ar
    27    32    33   ar
    28     3     4    1
    29     4     5    1
    30     5     6   am
    31     6     7    2
    32     6    34    1
    33    34    35    1
    34    35    36   ar
    35    36    37   ar
    36    37    38   ar
    37    38    39   ar
    38    17    12   ar
    39     5     1    1
    40    39    35   ar
    41    25    19   ar
    42    33    27   ar
    43    10    11    1
