@<TRIPOS>MOLECULE
*****
 34 37 0 0 0
SMALL
GASTEIGER

@<TRIPOS>ATOM
      1 N          62.9684   90.8103   11.5640 N.am    1  UNL1       -0.2438
      2 C          63.5534   91.4316   10.3305 C.3     1  UNL1        0.1009
      3 C          64.7221   92.3652   10.4430 C.3     1  UNL1        0.0661
      4 C          65.3058   92.6774   11.7891 C.3     1  UNL1        0.1578
      5 O          64.7207   92.0560   13.0227 O.3     1  UNL1       -0.4375
      6 C          63.5521   91.1224   12.9101 C.2     1  UNL1        0.4051
      7 O          62.9670   90.5010   14.1436 O.2     1  UNL1       -0.2262
      8 C          66.2016   93.5073   10.9179 C.ar    1  UNL1        0.0137
      9 C          66.0411   94.9982   10.8819 C.ar    1  UNL1       -0.0010
     10 C          66.9369   95.8282   10.0108 C.ar    1  UNL1       -0.0002
     11 C          67.9931   95.1670    9.1757 C.ar    1  UNL1       -0.0000
     12 C          68.1536   93.6761    9.2117 C.ar    1  UNL1       -0.0002
     13 C          67.2578   92.8462   10.0829 C.ar    1  UNL1       -0.0010
     14 C          60.4279   90.4212   11.1840 C.3     1  UNL1        0.0265
     15 C          61.7997   89.8767   11.4515 C.3     1  UNL1        0.1011
     16 C          62.0029   88.3986   11.6064 C.ar    1  UNL1       -0.0042
     17 C          63.1064   87.8808   12.4805 C.ar    1  UNL1       -0.0027
     18 C          63.3095   86.4027   12.6354 C.ar    1  UNL1       -0.0002
     19 C          62.4092   85.4425   11.9161 C.ar    1  UNL1        0.0021
     20 C          61.3058   85.9603   11.0419 C.ar    1  UNL1       -0.0002
     21 C          61.1026   87.4383   10.8871 C.ar    1  UNL1       -0.0027
     22 C          62.6124   83.9643   12.0710 C.ar    1  UNL1        0.0276
     23 C          63.0310   83.1372   10.8918 C.ar    1  UNL1        0.0045
     24 C          63.2342   81.6591   11.0467 C.ar    1  UNL1        0.0298
     25 C          63.0188   81.0082   12.3809 C.ar    1  UNL1        0.1424
     26 F          63.2220   79.5301   12.5358 F       1  UNL1       -0.2041
     27 C          62.6002   81.8354   13.5601 C.ar    1  UNL1        0.0592
     28 C          62.3970   83.3134   13.4051 C.ar    1  UNL1        0.1423
     29 F          61.9784   84.1407   14.5844 F       1  UNL1       -0.2041
     30 C          66.2006   93.2778   12.8326 C.3     1  UNL1        0.0471
     31 C          66.6248   92.4609   14.0169 C.3     1  UNL1        0.0357
     32 C          68.0704   92.1074   14.2052 C.3     1  UNL1        0.1373
     33 O          68.8883   91.6468   13.0352 O.3     1  UNL1       -0.3820
     34 H          68.5519   90.7927   12.7218 H       1  UNL1        0.2104
@<TRIPOS>BOND
     1    15    14    1
     2    15    16    1
     3    16    17   ar
     4    17    18   ar
     5    18    19   ar
     6    19    22    1
     7    22    23   ar
     8    23    24   ar
     9    24    25   ar
    10    25    26    1
    11    25    27   ar
    12    27    28   ar
    13    28    29    1
    14    19    20   ar
    15    20    21   ar
    16    15     1    1
    17     1     2    1
    18     2     3    1
    19     3     4    1
    20     4    30    1
    21    30    31    1
    22    31    32    1
    23    32    33    1
    24     4     8    1
    25     8     9   ar
    26     9    10   ar
    27    10    11   ar
    28    11    12   ar
    29    12    13   ar
    30     4     5    1
    31     5     6    1
    32     6     7    2
    33    21    16   ar
    34     6     1   am
    35    28    22   ar
    36    13     8   ar
    37    33    34    1
@<TRIPOS>MOLECULE
*****
 34 37 0 0 0
SMALL
GASTEIGER

@<TRIPOS>ATOM
      1 N          62.9584   90.7780   11.6964 N.am    1  UNL1       -0.2438
      2 C          63.5446   91.3345   10.4328 C.3     1  UNL1        0.1009
      3 C          64.7248   92.2581   10.4967 C.3     1  UNL1        0.0661
      4 C          65.3189   92.6252   11.8242 C.3     1  UNL1        0.1578
      5 O          64.7327   92.0687   13.0879 O.3     1  UNL1       -0.4375
      6 C          63.5524   91.1452   13.0240 C.2     1  UNL1        0.4051
      7 O          62.9663   90.5887   14.2876 O.2     1  UNL1       -0.2262
      8 C          66.2201   93.4030   10.9115 C.ar    1  UNL1        0.0137
      9 C          67.2686   92.6920   10.1083 C.ar    1  UNL1       -0.0010
     10 C          68.1698   93.4697    9.1956 C.ar    1  UNL1       -0.0002
     11 C          68.0224   94.9584    9.0863 C.ar    1  UNL1       -0.0000
     12 C          66.9739   95.6695    9.8895 C.ar    1  UNL1       -0.0002
     13 C          66.0727   94.8917   10.8021 C.ar    1  UNL1       -0.0010
     14 C          60.3893   90.4163   11.5596 C.3     1  UNL1        0.0265
     15 C          61.7782   89.8545   11.6325 C.3     1  UNL1        0.1011
     16 C          61.9869   88.3690   11.6415 C.ar    1  UNL1       -0.0042
     17 C          61.1146   87.4840   10.8014 C.ar    1  UNL1       -0.0027
     18 C          61.3234   85.9987   10.8104 C.ar    1  UNL1       -0.0002
     19 C          62.4044   85.3983   11.6595 C.ar    1  UNL1        0.0021
     20 C          63.2766   86.2834   12.4996 C.ar    1  UNL1       -0.0002
     21 C          63.0679   87.7687   12.4906 C.ar    1  UNL1       -0.0027
     22 C          62.6131   83.9129   11.6685 C.ar    1  UNL1        0.0276
     23 C          62.1874   83.1029   12.8570 C.ar    1  UNL1        0.0045
     24 C          62.3961   81.6175   12.8660 C.ar    1  UNL1        0.0298
     25 C          63.0305   80.9421   11.6864 C.ar    1  UNL1        0.1424
     26 F          63.2392   79.4568   11.6954 F       1  UNL1       -0.2041
     27 C          63.4562   81.7522   10.4979 C.ar    1  UNL1        0.0592
     28 C          63.2475   83.2376   10.4889 C.ar    1  UNL1        0.1423
     29 F          63.6732   84.0476    9.3004 F       1  UNL1       -0.2041
     30 C          66.2259   93.2624   12.8348 C.3     1  UNL1        0.0471
     31 C          66.5644   92.5357   14.1025 C.3     1  UNL1        0.0357
     32 C          67.8341   91.7425   14.1962 C.3     1  UNL1        0.1373
     33 O          68.8340   91.7930   13.0792 O.3     1  UNL1       -0.3820
     34 H          68.4505   91.3921   12.2835 H       1  UNL1        0.2104
@<TRIPOS>BOND
     1    15    14    1
     2    15    16    1
     3    16    17   ar
     4    17    18   ar
     5    18    19   ar
     6    19    22    1
     7    22    23   ar
     8    23    24   ar
     9    24    25   ar
    10    25    26    1
    11    25    27   ar
    12    27    28   ar
    13    28    29    1
    14    19    20   ar
    15    20    21   ar
    16    15     1    1
    17     1     2    1
    18     2     3    1
    19     3     4    1
    20     4    30    1
    21    30    31    1
    22    31    32    1
    23    32    33    1
    24     4     8    1
    25     8     9   ar
    26     9    10   ar
    27    10    11   ar
    28    11    12   ar
    29    12    13   ar
    30     4     5    1
    31     5     6    1
    32     6     7    2
    33    21    16   ar
    34     6     1   am
    35    28    22   ar
    36    13     8   ar
    37    33    34    1
@<TRIPOS>MOLECULE
*****
 34 37 0 0 0
SMALL
GASTEIGER

@<TRIPOS>ATOM
      1 N          63.3174   90.3111   12.0487 N.am    1  UNL1       -0.2438
      2 C          63.9973   90.1836   13.3796 C.3     1  UNL1        0.1009
      3 C          65.1899   91.0362   13.6972 C.3     1  UNL1        0.0661
      4 C          65.7025   92.0162   12.6840 C.3     1  UNL1        0.1578
      5 O          65.0226   92.1437   11.3530 O.3     1  UNL1       -0.4375
      6 C          63.8300   91.2912   11.0353 C.2     1  UNL1        0.4051
      7 O          63.1500   91.4187    9.7044 O.2     1  UNL1       -0.2262
      8 C          66.6782   92.2583   13.7973 C.ar    1  UNL1        0.0137
      9 C          68.1341   91.9576   13.5973 C.ar    1  UNL1       -0.0010
     10 C          69.1098   92.1997   14.7106 C.ar    1  UNL1       -0.0002
     11 C          68.6295   92.7424   16.0239 C.ar    1  UNL1       -0.0000
     12 C          67.1737   93.0430   16.2240 C.ar    1  UNL1       -0.0002
     13 C          66.1980   92.8009   15.1106 C.ar    1  UNL1       -0.0010
     14 C          60.8064   90.1007   11.4155 C.3     1  UNL1        0.0265
     15 C          62.1248   89.4586   11.7310 C.3     1  UNL1        0.1011
     16 C          62.2506   87.9638   11.7288 C.ar    1  UNL1       -0.0042
     17 C          61.4424   87.1445   10.7668 C.ar    1  UNL1       -0.0027
     18 C          61.5682   85.6498   10.7647 C.ar    1  UNL1       -0.0002
     19 C          62.5022   84.9744   11.7246 C.ar    1  UNL1        0.0021
     20 C          63.3104   85.7937   12.6866 C.ar    1  UNL1       -0.0002
     21 C          63.1846   87.2884   12.6888 C.ar    1  UNL1       -0.0027
     22 C          62.6281   83.4797   11.7224 C.ar    1  UNL1        0.0276
     23 C          62.1662   82.6864   12.9087 C.ar    1  UNL1        0.0045
     24 C          62.2920   81.1917   12.9066 C.ar    1  UNL1        0.0298
     25 C          62.8797   80.4902   11.7180 C.ar    1  UNL1        0.1424
     26 F          63.0055   78.9955   11.7158 F       1  UNL1       -0.2041
     27 C          63.3415   81.2835   10.5316 C.ar    1  UNL1        0.0592
     28 C          63.2157   82.7782   10.5339 C.ar    1  UNL1        0.1423
     29 F          63.6775   83.5716    9.3475 F       1  UNL1       -0.2041
     30 C          66.5540   93.0803   12.0574 C.3     1  UNL1        0.0471
     31 C          66.7808   93.0830   10.5746 C.3     1  UNL1        0.0357
     32 C          68.0362   92.4899   10.0068 C.3     1  UNL1        0.1373
     33 O          69.2358   93.3588    9.7704 O.3     1  UNL1       -0.3820
     34 H          69.0342   94.0066    9.0771 H       1  UNL1        0.2104
@<TRIPOS>BOND
     1    15    14    1
     2    15    16    1
     3    16    17   ar
     4    17    18   ar
     5    18    19   ar
     6    19    22    1
     7    22    23   ar
     8    23    24   ar
     9    24    25   ar
    10    25    26    1
    11    25    27   ar
    12    27    28   ar
    13    28    29    1
    14    19    20   ar
    15    20    21   ar
    16    15     1    1
    17     1     2    1
    18     2     3    1
    19     3     4    1
    20     4    30    1
    21    30    31    1
    22    31    32    1
    23    32    33    1
    24     4     8    1
    25     8     9   ar
    26     9    10   ar
    27    10    11   ar
    28    11    12   ar
    29    12    13   ar
    30     4     5    1
    31     5     6    1
    32     6     7    2
    33    21    16   ar
    34     6     1   am
    35    28    22   ar
    36    13     8   ar
    37    33    34    1
@<TRIPOS>MOLECULE
*****
 34 37 0 0 0
SMALL
GASTEIGER

@<TRIPOS>ATOM
      1 N          63.3032   90.3519   12.0481 N.am    1  UNL1       -0.2438
      2 C          63.9857   90.1952   13.3746 C.3     1  UNL1        0.1009
      3 C          65.1699   91.0508   13.7144 C.3     1  UNL1        0.0661
      4 C          65.6717   92.0631   12.7277 C.3     1  UNL1        0.1578
      5 O          64.9892   92.2198   11.4012 O.3     1  UNL1       -0.4375
      6 C          63.8049   91.3642   11.0614 C.2     1  UNL1        0.4051
      7 O          63.1224   91.5209    9.7349 O.2     1  UNL1       -0.2262
      8 C          66.6460   92.2847   13.8465 C.ar    1  UNL1        0.0137
      9 C          66.1524   92.7096   15.1977 C.ar    1  UNL1       -0.0010
     10 C          67.1267   92.9312   16.3165 C.ar    1  UNL1       -0.0002
     11 C          68.5946   92.7278   16.0840 C.ar    1  UNL1       -0.0000
     12 C          69.0882   92.3029   14.7328 C.ar    1  UNL1       -0.0002
     13 C          68.1138   92.0813   13.6140 C.ar    1  UNL1       -0.0010
     14 C          60.8069   90.1352   11.3612 C.3     1  UNL1        0.0265
     15 C          62.1189   89.4963   11.7083 C.3     1  UNL1        0.1011
     16 C          62.2467   88.0017   11.7155 C.ar    1  UNL1       -0.0042
     17 C          61.4272   87.1743   10.7701 C.ar    1  UNL1       -0.0027
     18 C          61.5550   85.6798   10.7773 C.ar    1  UNL1       -0.0002
     19 C          62.5022   85.0127   11.7300 C.ar    1  UNL1        0.0021
     20 C          63.3217   85.8401   12.6755 C.ar    1  UNL1       -0.0002
     21 C          63.1939   87.3345   12.6682 C.ar    1  UNL1       -0.0027
     22 C          62.6300   83.5181   11.7372 C.ar    1  UNL1        0.0276
     23 C          62.1830   82.7329   12.9346 C.ar    1  UNL1        0.0045
     24 C          62.3107   81.2384   12.9418 C.ar    1  UNL1        0.0298
     25 C          62.8855   80.5290   11.7516 C.ar    1  UNL1        0.1424
     26 F          63.0133   79.0345   11.7588 F       1  UNL1       -0.2041
     27 C          63.3326   81.3143   10.5543 C.ar    1  UNL1        0.0592
     28 C          63.2048   82.8088   10.5471 C.ar    1  UNL1        0.1423
     29 F          63.6518   83.5940    9.3497 F       1  UNL1       -0.2041
     30 C          66.5118   93.1523   12.1296 C.3     1  UNL1        0.0471
     31 C          65.9300   94.0624   11.0889 C.3     1  UNL1        0.0357
     32 C          66.3313   95.5072   11.0469 C.3     1  UNL1        0.1373
     33 O          65.7997   96.4633   12.0731 O.3     1  UNL1       -0.3820
     34 H          64.8408   96.5578   11.9609 H       1  UNL1        0.2104
@<TRIPOS>BOND
     1    15    14    1
     2    15    16    1
     3    16    17   ar
     4    17    18   ar
     5    18    19   ar
     6    19    22    1
     7    22    23   ar
     8    23    24   ar
     9    24    25   ar
    10    25    26    1
    11    25    27   ar
    12    27    28   ar
    13    28    29    1
    14    19    20   ar
    15    20    21   ar
    16    15     1    1
    17     1     2    1
    18     2     3    1
    19     3     4    1
    20     4    30    1
    21    30    31    1
    22    31    32    1
    23    32    33    1
    24     4     8    1
    25     8     9   ar
    26     9    10   ar
    27    10    11   ar
    28    11    12   ar
    29    12    13   ar
    30     4     5    1
    31     5     6    1
    32     6     7    2
    33    21    16   ar
    34     6     1   am
    35    28    22   ar
    36    13     8   ar
    37    33    34    1
@<TRIPOS>MOLECULE
*****
 34 37 0 0 0
SMALL
GASTEIGER

@<TRIPOS>ATOM
      1 N          63.7941   88.2963   14.7986 N.am    1  UNL1       -0.2438
      2 C          63.9488   87.8338   13.3801 C.3     1  UNL1        0.1009
      3 C          63.8505   86.3733   13.0525 C.3     1  UNL1        0.0661
      4 C          63.5974   85.3754   14.1433 C.3     1  UNL1        0.1578
      5 O          63.4427   85.8378   15.5619 O.3     1  UNL1       -0.4375
      6 C          63.5410   87.2983   15.8895 C.2     1  UNL1        0.4051
      7 O          63.3863   87.7608   17.3080 O.2     1  UNL1       -0.2262
      8 C          63.6734   84.4553   12.9610 C.ar    1  UNL1        0.0137
      9 C          64.5967   83.2734   12.9886 C.ar    1  UNL1       -0.0010
     10 C          64.6727   82.3534   11.8063 C.ar    1  UNL1       -0.0002
     11 C          63.8254   82.6152   10.5965 C.ar    1  UNL1       -0.0000
     12 C          62.9021   83.7971   10.5690 C.ar    1  UNL1       -0.0002
     13 C          62.8261   84.7171   11.7513 C.ar    1  UNL1       -0.0010
     14 C          63.3953   90.2642   16.4474 C.3     1  UNL1        0.0265
     15 C          63.8924   89.7568   15.1263 C.3     1  UNL1        0.1011
     16 C          64.4879   90.7099   14.1327 C.ar    1  UNL1       -0.0042
     17 C          63.7369   91.0547   12.8810 C.ar    1  UNL1       -0.0027
     18 C          64.3324   92.0077   11.8875 C.ar    1  UNL1       -0.0002
     19 C          65.6790   92.6160   12.1458 C.ar    1  UNL1        0.0021
     20 C          66.4300   92.2712   13.3976 C.ar    1  UNL1       -0.0002
     21 C          65.8345   91.3181   14.3910 C.ar    1  UNL1       -0.0027
     22 C          66.2745   93.5691   11.1523 C.ar    1  UNL1        0.0276
     23 C          65.8956   95.0201   11.1848 C.ar    1  UNL1        0.0045
     24 C          66.4912   95.9732   10.1912 C.ar    1  UNL1        0.0298
     25 C          67.4655   95.4752    9.1652 C.ar    1  UNL1        0.1424
     26 F          68.0610   96.4282    8.1717 F       1  UNL1       -0.2041
     27 C          67.8443   94.0241    9.1328 C.ar    1  UNL1        0.0592
     28 C          67.2488   93.0711   10.1263 C.ar    1  UNL1        0.1423
     29 F          67.6277   91.6200   10.0938 F       1  UNL1       -0.2041
     30 C          63.3707   84.0578   14.8236 C.3     1  UNL1        0.0471
     31 C          61.9779   83.5227   14.9769 C.3     1  UNL1        0.0357
     32 C          61.6461   82.1439   14.4883 C.3     1  UNL1        0.1373
     33 O          62.5940   81.0096   14.7431 O.3     1  UNL1       -0.3820
     34 H          63.4182   81.1610   14.2546 H       1  UNL1        0.2104
@<TRIPOS>BOND
     1    15    14    1
     2    15    16    1
     3    16    17   ar
     4    17    18   ar
     5    18    19   ar
     6    19    22    1
     7    22    23   ar
     8    23    24   ar
     9    24    25   ar
    10    25    26    1
    11    25    27   ar
    12    27    28   ar
    13    28    29    1
    14    19    20   ar
    15    20    21   ar
    16    15     1    1
    17     1     2    1
    18     2     3    1
    19     3     4    1
    20     4    30    1
    21    30    31    1
    22    31    32    1
    23    32    33    1
    24     4     8    1
    25     8     9   ar
    26     9    10   ar
    27    10    11   ar
    28    11    12   ar
    29    12    13   ar
    30     4     5    1
    31     5     6    1
    32     6     7    2
    33    21    16   ar
    34     6     1   am
    35    28    22   ar
    36    13     8   ar
    37    33    34    1
@<TRIPOS>MOLECULE
*****
 34 37 0 0 0
SMALL
GASTEIGER

@<TRIPOS>ATOM
      1 N          64.4714   90.4939   14.6020 N.am    1  UNL1       -0.2438
      2 C          64.7413   90.5379   13.1272 C.3     1  UNL1        0.1009
      3 C          65.5002   91.6896   12.5377 C.3     1  UNL1        0.0661
      4 C          65.9894   92.7972   13.4229 C.3     1  UNL1        0.1578
      5 O          65.7195   92.7533   14.8979 O.3     1  UNL1       -0.4375
      6 C          64.9606   91.6016   15.4874 C.2     1  UNL1        0.4051
      7 O          64.6907   91.5575   16.9623 O.2     1  UNL1       -0.2262
      8 C          66.4894   93.2848   12.0954 C.ar    1  UNL1        0.0137
      9 C          67.2744   92.3664   11.2064 C.ar    1  UNL1       -0.0010
     10 C          67.7744   92.8539    9.8788 C.ar    1  UNL1       -0.0002
     11 C          67.4894   94.2598    9.4404 C.ar    1  UNL1       -0.0000
     12 C          66.7044   95.1782   10.3294 C.ar    1  UNL1       -0.0002
     13 C          66.2044   94.6906   11.6569 C.ar    1  UNL1       -0.0010
     14 C          63.0254   89.4961   16.5160 C.3     1  UNL1        0.0265
     15 C          63.7125   89.3422   15.1916 C.3     1  UNL1        0.1011
     16 C          63.6406   88.0365   14.4566 C.ar    1  UNL1       -0.0042
     17 C          64.1162   86.7767   15.1175 C.ar    1  UNL1       -0.0027
     18 C          64.0443   85.4711   14.3825 C.ar    1  UNL1       -0.0002
     19 C          63.4969   85.4253   12.9867 C.ar    1  UNL1        0.0021
     20 C          63.0213   86.6851   12.3259 C.ar    1  UNL1       -0.0002
     21 C          63.0932   87.9906   13.0609 C.ar    1  UNL1       -0.0027
     22 C          63.4250   84.1196   12.2518 C.ar    1  UNL1        0.0276
     23 C          64.0668   83.9818   10.9031 C.ar    1  UNL1        0.0045
     24 C          63.9949   82.6761   10.1681 C.ar    1  UNL1        0.0298
     25 C          63.2813   81.5082   10.7819 C.ar    1  UNL1        0.1424
     26 F          63.2094   80.2026   10.0471 F       1  UNL1       -0.2041
     27 C          62.6395   81.6461   12.1307 C.ar    1  UNL1        0.0592
     28 C          62.7114   82.9517   12.8656 C.ar    1  UNL1        0.1423
     29 F          62.0696   83.0896   14.2144 F       1  UNL1       -0.2041
     30 C          66.6522   94.0743   13.8472 C.3     1  UNL1        0.0471
     31 C          67.6335   94.0690   14.9816 C.3     1  UNL1        0.0357
     32 C          68.5436   92.8934   15.1806 C.3     1  UNL1        0.1373
     33 O          69.4161   92.4215   14.0554 O.3     1  UNL1       -0.3820
     34 H          68.8610   92.0775   13.3382 H       1  UNL1        0.2104
@<TRIPOS>BOND
     1    15    14    1
     2    15    16    1
     3    16    17   ar
     4    17    18   ar
     5    18    19   ar
     6    19    22    1
     7    22    23   ar
     8    23    24   ar
     9    24    25   ar
    10    25    26    1
    11    25    27   ar
    12    27    28   ar
    13    28    29    1
    14    19    20   ar
    15    20    21   ar
    16    15     1    1
    17     1     2    1
    18     2     3    1
    19     3     4    1
    20     4    30    1
    21    30    31    1
    22    31    32    1
    23    32    33    1
    24     4     8    1
    25     8     9   ar
    26     9    10   ar
    27    10    11   ar
    28    11    12   ar
    29    12    13   ar
    30     4     5    1
    31     5     6    1
    32     6     7    2
    33    21    16   ar
    34     6     1   am
    35    28    22   ar
    36    13     8   ar
    37    33    34    1
@<TRIPOS>MOLECULE
*****
 34 37 0 0 0
SMALL
GASTEIGER

@<TRIPOS>ATOM
      1 N          64.1006   91.0501   13.1581 N.am    1  UNL1       -0.2438
      2 C          64.2811   91.6382   11.7901 C.3     1  UNL1        0.1009
      3 C          65.1925   92.8131   11.5930 C.3     1  UNL1        0.0661
      4 C          65.9234   93.4000   12.7640 C.3     1  UNL1        0.1578
      5 O          65.7430   92.8120   14.1321 O.3     1  UNL1       -0.4375
      6 C          64.8316   91.6370   14.3292 C.2     1  UNL1        0.4051
      7 O          64.6511   91.0490   15.6972 O.2     1  UNL1       -0.2262
      8 C          66.4173   94.3005   11.6707 C.ar    1  UNL1        0.0137
      9 C          66.1915   95.7808   11.7589 C.ar    1  UNL1       -0.0010
     10 C          66.6854   96.6813   10.6656 C.ar    1  UNL1       -0.0002
     11 C          67.4051   96.1014    9.4842 C.ar    1  UNL1       -0.0000
     12 C          67.6309   94.6212    9.3960 C.ar    1  UNL1       -0.0002
     13 C          67.1370   93.7207   10.4893 C.ar    1  UNL1       -0.0010
     14 C          62.5928   89.6067   14.7051 C.3     1  UNL1        0.0265
     15 C          63.1892   89.8752   13.3552 C.3     1  UNL1        0.1011
     16 C          62.8742   88.9687   12.2023 C.ar    1  UNL1       -0.0042
     17 C          62.4434   89.5489   10.8879 C.ar    1  UNL1       -0.0027
     18 C          62.1284   88.6424    9.7351 C.ar    1  UNL1       -0.0002
     19 C          62.2442   87.1556    9.8967 C.ar    1  UNL1        0.0021
     20 C          62.6750   86.5754   11.2111 C.ar    1  UNL1       -0.0002
     21 C          62.9900   87.4819   12.3639 C.ar    1  UNL1       -0.0027
     22 C          61.9292   86.2491    8.7439 C.ar    1  UNL1        0.0276
     23 C          63.0158   85.4252    8.1190 C.ar    1  UNL1        0.0045
     24 C          62.7008   84.5187    6.9661 C.ar    1  UNL1        0.0298
     25 C          61.2992   84.4361    6.4381 C.ar    1  UNL1        0.1424
     26 F          60.9842   83.5297    5.2853 F       1  UNL1       -0.2041
     27 C          60.2126   85.2601    7.0631 C.ar    1  UNL1        0.0592
     28 C          60.5276   86.1666    8.2159 C.ar    1  UNL1        0.1423
     29 F          59.4410   86.9905    8.8409 F       1  UNL1       -0.2041
     30 C          66.8259   94.2997   13.5553 C.3     1  UNL1        0.0471
     31 C          67.3855   93.8350   14.8671 C.3     1  UNL1        0.0357
     32 C          68.5804   92.9285   14.8939 C.3     1  UNL1        0.1373
     33 O          68.8343   91.9885   13.7529 O.3     1  UNL1       -0.3820
     34 H          68.1278   91.3248   13.7174 H       1  UNL1        0.2104
@<TRIPOS>BOND
     1    15    14    1
     2    15    16    1
     3    16    17   ar
     4    17    18   ar
     5    18    19   ar
     6    19    22    1
     7    22    23   ar
     8    23    24   ar
     9    24    25   ar
    10    25    26    1
    11    25    27   ar
    12    27    28   ar
    13    28    29    1
    14    19    20   ar
    15    20    21   ar
    16    15     1    1
    17     1     2    1
    18     2     3    1
    19     3     4    1
    20     4    30    1
    21    30    31    1
    22    31    32    1
    23    32    33    1
    24     4     8    1
    25     8     9   ar
    26     9    10   ar
    27    10    11   ar
    28    11    12   ar
    29    12    13   ar
    30     4     5    1
    31     5     6    1
    32     6     7    2
    33    21    16   ar
    34     6     1   am
    35    28    22   ar
    36    13     8   ar
    37    33    34    1
@<TRIPOS>MOLECULE
*****
 34 37 0 0 0
SMALL
GASTEIGER

@<TRIPOS>ATOM
      1 N          63.8766   88.8256   14.8531 N.am    1  UNL1       -0.2438
      2 C          64.0171   88.2839   13.4615 C.3     1  UNL1        0.1009
      3 C          63.8990   86.8089   13.2153 C.3     1  UNL1        0.0661
      4 C          63.6405   85.8757   14.3609 C.3     1  UNL1        0.1578
      5 O          63.5001   86.4175   15.7526 O.3     1  UNL1       -0.4375
      6 C          63.6182   87.8924   15.9987 C.2     1  UNL1        0.4051
      7 O          63.4777   88.4342   17.3904 O.2     1  UNL1       -0.2262
      8 C          63.6982   84.8911   13.2307 C.ar    1  UNL1        0.0137
      9 C          62.8205   85.0770   12.0286 C.ar    1  UNL1       -0.0010
     10 C          62.8781   84.0924   10.8984 C.ar    1  UNL1       -0.0002
     11 C          63.8134   82.9219   10.9705 C.ar    1  UNL1       -0.0000
     12 C          64.6910   82.7360   12.1726 C.ar    1  UNL1       -0.0002
     13 C          64.6334   83.7206   13.3028 C.ar    1  UNL1       -0.0010
     14 C          63.5102   90.8863   16.3923 C.3     1  UNL1        0.0265
     15 C          63.9947   90.3006   15.0992 C.3     1  UNL1        0.1011
     16 C          64.5973   91.1898   14.0522 C.ar    1  UNL1       -0.0042
     17 C          63.9428   91.3163   12.7084 C.ar    1  UNL1       -0.0027
     18 C          64.5454   92.2054   11.6615 C.ar    1  UNL1       -0.0002
     19 C          65.8024   92.9682   11.9582 C.ar    1  UNL1        0.0021
     20 C          66.4569   92.8417   13.3019 C.ar    1  UNL1       -0.0002
     21 C          65.8543   91.9526   14.3489 C.ar    1  UNL1       -0.0027
     22 C          66.4050   93.8574   10.9111 C.ar    1  UNL1        0.0276
     23 C          66.9785   93.2609    9.6601 C.ar    1  UNL1        0.0045
     24 C          67.5810   94.1501    8.6130 C.ar    1  UNL1        0.0298
     25 C          67.6101   95.6359    8.8171 C.ar    1  UNL1        0.1424
     26 F          68.2126   96.5251    7.7701 F       1  UNL1       -0.2041
     27 C          67.0366   96.2324   10.0682 C.ar    1  UNL1        0.0592
     28 C          66.4340   95.3432   11.1152 C.ar    1  UNL1        0.1423
     29 F          65.8605   95.9397   12.3664 F       1  UNL1       -0.2041
     30 C          63.4021   84.6005   15.1140 C.3     1  UNL1        0.0471
     31 C          62.0322   84.2826   15.6358 C.3     1  UNL1        0.0357
     32 C          61.0503   85.3883   15.8877 C.3     1  UNL1        0.1373
     33 O          61.1680   86.2284   17.1248 O.3     1  UNL1       -0.3820
     34 H          60.9980   85.6792   17.9060 H       1  UNL1        0.2104
@<TRIPOS>BOND
     1    15    14    1
     2    15    16    1
     3    16    17   ar
     4    17    18   ar
     5    18    19   ar
     6    19    22    1
     7    22    23   ar
     8    23    24   ar
     9    24    25   ar
    10    25    26    1
    11    25    27   ar
    12    27    28   ar
    13    28    29    1
    14    19    20   ar
    15    20    21   ar
    16    15     1    1
    17     1     2    1
    18     2     3    1
    19     3     4    1
    20     4    30    1
    21    30    31    1
    22    31    32    1
    23    32    33    1
    24     4     8    1
    25     8     9   ar
    26     9    10   ar
    27    10    11   ar
    28    11    12   ar
    29    12    13   ar
    30     4     5    1
    31     5     6    1
    32     6     7    2
    33    21    16   ar
    34     6     1   am
    35    28    22   ar
    36    13     8   ar
    37    33    34    1
