@<TRIPOS>MOLECULE
*****
 39 43 0 0 0
SMALL
GASTEIGER

@<TRIPOS>ATOM
      1 C          61.3720   87.4342   10.2655 C.ar    1  UNL1        0.0719
      2 C          62.0310   86.1979   10.8014 C.ar    1  UNL1        0.1049
      3 N          62.7630   86.5697   12.0567 N.ar    1  UNL1       -0.2242
      4 N          63.5910   85.7627   13.0123 N.ar    1  UNL1       -0.1422
      5 C          64.2123   86.4219   14.2078 C.ar    1  UNL1        0.2211
      6 N          64.0056   87.8881   14.4478 N.ar    1  UNL1       -0.2060
      7 C          63.1776   88.6951   13.4923 C.ar    1  UNL1        0.1515
      8 C          62.5563   88.0359   12.2967 C.ar    1  UNL1        0.1107
      9 C          61.6966   88.5701   11.1897 C.ar    1  UNL1        0.0040
     10 C          59.1097   88.3742    7.2548 C.ar    1  UNL1        0.3086
     11 N          59.3852   86.9276    6.9697 N.ar    1  UNL1       -0.0923
     12 N          60.2662   86.3994    8.0629 N.ar    1  UNL1       -0.1057
     13 C          60.5352   87.5196    9.0235 C.ar    1  UNL1        0.2525
     14 O          59.8204   88.7401    8.5241 O.2     1  UNL1       -0.4048
     15 N          58.2708   89.2937    6.4176 N.pl3   1  UNL1       -0.2888
     16 H          57.2985   89.1524    6.3548 H       1  UNL1        0.1511
     17 C          58.0638   91.5116    5.0806 C.3     1  UNL1        0.0213
     18 C          58.9133   90.4282    5.6760 C.3     1  UNL1        0.0733
     19 C          60.4053   90.4794    5.5298 C.3     1  UNL1        0.0213
     20 C          61.2415   89.9910   11.0342 C.3     1  UNL1        0.0241
     21 C          62.1449   91.0019   10.3923 C.3     1  UNL1        0.0047
     22 C          59.8831   90.4009   11.5205 C.3     1  UNL1        0.0047
     23 N          62.9710   90.1613   13.7323 N.pl3   1  UNL1       -0.2949
     24 H          62.0600   90.5345   13.7442 H       1  UNL1        0.1537
     25 C          64.1522   91.0587   13.9542 C.ar    1  UNL1        0.0775
     26 C          64.8356   91.7020   12.7840 C.ar    1  UNL1        0.0237
     27 C          66.0168   92.5995   13.0059 C.ar    1  UNL1        0.0821
     28 C          66.5146   92.8538   14.3978 C.ar    1  UNL1        0.1468
     29 F          67.6959   93.7513   14.6196 F       1  UNL1       -0.2039
     30 C          65.8312   92.2105   15.5679 C.ar    1  UNL1        0.0607
     31 C          64.6500   91.3130   15.3461 C.ar    1  UNL1        0.1557
     32 F          63.9666   90.6698   16.5162 F       1  UNL1       -0.2028
     33 C          66.7002   93.2428   11.8357 C.2     1  UNL1        0.2480
     34 O          67.8525   92.5527   11.1679 O.2     1  UNL1       -0.2701
     35 N          66.2314   94.5762   11.3335 N.am    1  UNL1       -0.3024
     36 H          65.4751   95.0291   11.7718 H       1  UNL1        0.1497
     37 C          66.9147   95.2195   10.1634 C.3     1  UNL1        0.0720
     38 C          67.3128   96.4533    9.4089 C.3     1  UNL1        0.0213
     39 C          67.7003   95.0999    8.8912 C.3     1  UNL1        0.0213
@<TRIPOS>BOND
     1    17    18    1
     2    18    19    1
     3    18    15    1
     4    15    10    1
     5    10    11   ar
     6    11    12   ar
     7    12    13   ar
     8    13     1    1
     9     1     2   ar
    10     2     3   ar
    11     3     4   ar
    12     4     5   ar
    13     5     6   ar
    14     6     7   ar
    15     7    23    1
    16    23    25    1
    17    25    26   ar
    18    26    27   ar
    19    27    33    1
    20    33    34    2
    21    33    35   am
    22    35    37    1
    23    37    38    1
    24    38    39    1
    25    27    28   ar
    26    28    29    1
    27    28    30   ar
    28    30    31   ar
    29    31    32    1
    30     7     8   ar
    31     8     9   ar
    32     9    20    1
    33    20    21    1
    34    20    22    1
    35    13    14   ar
    36    14    10   ar
    37     9     1   ar
    38     8     3   ar
    39    31    25   ar
    40    39    37    1
    41    15    16    1
    42    23    24    1
    43    35    36    1
@<TRIPOS>MOLECULE
*****
 39 43 0 0 0
SMALL
GASTEIGER

@<TRIPOS>ATOM
      1 C          62.6665   85.7882   10.8393 C.ar    1  UNL1        0.0719
      2 C          62.0582   86.5434    9.6949 C.ar    1  UNL1        0.1049
      3 N          61.8563   87.9640   10.1320 N.ar    1  UNL1       -0.2242
      4 N          61.2947   89.1616    9.4248 N.ar    1  UNL1       -0.1422
      5 C          61.2166   90.4820   10.1321 C.ar    1  UNL1        0.2211
      6 N          61.7001   90.6048   11.5467 N.ar    1  UNL1       -0.2060
      7 C          62.2617   89.4072   12.2540 C.ar    1  UNL1        0.1515
      8 C          62.3399   88.0868   11.5466 C.ar    1  UNL1        0.1107
      9 C          62.8406   86.7421   11.9837 C.ar    1  UNL1        0.0040
     10 C          63.0891   81.9663   11.3682 C.ar    1  UNL1        0.3086
     11 N          64.1196   82.2281   10.3101 N.ar    1  UNL1       -0.0923
     12 N          64.0867   83.6917    9.9832 N.ar    1  UNL1       -0.1057
     13 C          63.0359   84.3344   10.8392 C.ar    1  UNL1        0.2525
     14 O          62.4194   83.2680   11.6952 O.2     1  UNL1       -0.4048
     15 N          62.7823   80.6362   11.9901 N.pl3   1  UNL1       -0.2888
     16 H          62.7725   79.8236   11.4345 H       1  UNL1        0.1511
     17 C          63.6171   80.4236   14.4411 C.3     1  UNL1        0.0213
     18 C          62.4903   80.5444   13.4586 C.3     1  UNL1        0.0733
     19 C          61.0714   80.5733   13.9444 C.3     1  UNL1        0.0213
     20 C          63.4146   86.4097   13.3291 C.3     1  UNL1        0.0241
     21 C          62.9756   85.1671   14.0456 C.3     1  UNL1        0.0047
     22 C          64.4275   87.3197   13.9580 C.3     1  UNL1        0.0047
     23 N          62.7453   89.5301   13.6686 N.pl3   1  UNL1       -0.2949
     24 H          62.3765   88.9429   14.3676 H       1  UNL1        0.1537
     25 C          63.7906   90.5474   14.0183 C.ar    1  UNL1        0.0775
     26 C          64.5532   91.2436   12.9302 C.ar    1  UNL1        0.0237
     27 C          65.5985   92.2610   13.2799 C.ar    1  UNL1        0.0821
     28 C          65.8813   92.5821   14.7175 C.ar    1  UNL1        0.1468
     29 F          66.9267   93.5995   15.0672 F       1  UNL1       -0.2039
     30 C          65.1188   91.8859   15.8056 C.ar    1  UNL1        0.0607
     31 C          64.0734   90.8685   15.4559 C.ar    1  UNL1        0.1557
     32 F          63.3109   90.1723   16.5439 F       1  UNL1       -0.2028
     33 C          66.3611   92.9572   12.1918 C.2     1  UNL1        0.2480
     34 O          67.6435   92.3703   11.6810 O.2     1  UNL1       -0.2701
     35 N          65.8412   94.2404   11.6146 N.am    1  UNL1       -0.3024
     36 H          64.9995   94.6256   11.9499 H       1  UNL1        0.1497
     37 C          66.6037   94.9367   10.5266 C.3     1  UNL1        0.0720
     38 C          67.0060   96.2009    9.8267 C.3     1  UNL1        0.0213
     39 C          67.5220   94.8785    9.3421 C.3     1  UNL1        0.0213
@<TRIPOS>BOND
     1    17    18    1
     2    18    19    1
     3    18    15    1
     4    15    10    1
     5    10    11   ar
     6    11    12   ar
     7    12    13   ar
     8    13     1    1
     9     1     2   ar
    10     2     3   ar
    11     3     4   ar
    12     4     5   ar
    13     5     6   ar
    14     6     7   ar
    15     7    23    1
    16    23    25    1
    17    25    26   ar
    18    26    27   ar
    19    27    33    1
    20    33    34    2
    21    33    35   am
    22    35    37    1
    23    37    38    1
    24    38    39    1
    25    27    28   ar
    26    28    29    1
    27    28    30   ar
    28    30    31   ar
    29    31    32    1
    30     7     8   ar
    31     8     9   ar
    32     9    20    1
    33    20    21    1
    34    20    22    1
    35    13    14   ar
    36    14    10   ar
    37     9     1   ar
    38     8     3   ar
    39    31    25   ar
    40    39    37    1
    41    15    16    1
    42    23    24    1
    43    35    36    1
@<TRIPOS>MOLECULE
*****
 39 43 0 0 0
SMALL
GASTEIGER

@<TRIPOS>ATOM
      1 C          62.9544   84.6253   12.3482 C.ar    1  UNL1        0.0719
      2 C          62.4071   85.1700   11.0623 C.ar    1  UNL1        0.1049
      3 N          62.4404   86.6675   11.1416 N.ar    1  UNL1       -0.2242
      4 N          62.0270   87.7335   10.1707 N.ar    1  UNL1       -0.1422
      5 C          62.1816   89.1804   10.5348 C.ar    1  UNL1        0.2211
      6 N          62.7496   89.5612   11.8699 N.ar    1  UNL1       -0.2060
      7 C          63.1630   88.4952   12.8408 C.ar    1  UNL1        0.1515
      8 C          63.0084   87.0484   12.4766 C.ar    1  UNL1        0.1107
      9 C          63.3260   85.7862   13.2224 C.ar    1  UNL1        0.0040
     10 C          62.9049   80.7560   12.6511 C.ar    1  UNL1        0.3086
     11 N          63.7627   81.1276   13.8242 N.ar    1  UNL1       -0.0923
     12 N          63.8856   82.6223   13.8535 N.ar    1  UNL1       -0.1057
     13 C          63.1038   83.1744   12.6986 C.ar    1  UNL1        0.2525
     14 O          62.4978   82.0210   11.9554 O.2     1  UNL1       -0.4048
     15 N          62.5217   79.3638   12.2450 N.pl3   1  UNL1       -0.2888
     16 H          62.1157   78.7535   12.9022 H       1  UNL1        0.1511
     17 C          62.9599   79.9061    9.7423 C.3     1  UNL1        0.0213
     18 C          62.7569   78.9015   10.8375 C.3     1  UNL1        0.0733
     19 C          62.7892   77.4348   10.5253 C.3     1  UNL1        0.0213
     20 C          63.9124   85.7001   14.6003 C.3     1  UNL1        0.0241
     21 C          63.0167   85.4865   15.7846 C.3     1  UNL1        0.0047
     22 C          65.3943   85.8276   14.7942 C.3     1  UNL1        0.0047
     23 N          63.7310   88.8761   14.1758 N.pl3   1  UNL1       -0.2949
     24 H          63.6074   88.2819   14.9510 H       1  UNL1        0.1537
     25 C          64.4872   90.1623   14.3298 C.ar    1  UNL1        0.0775
     26 C          65.3027   90.6941   13.1887 C.ar    1  UNL1        0.0237
     27 C          66.0590   91.9803   13.3427 C.ar    1  UNL1        0.0821
     28 C          65.9997   92.7348   14.6378 C.ar    1  UNL1        0.1468
     29 F          66.7560   94.0210   14.7918 F       1  UNL1       -0.2039
     30 C          65.1842   92.2030   15.7789 C.ar    1  UNL1        0.0607
     31 C          64.4279   90.9167   15.6249 C.ar    1  UNL1        0.1557
     32 F          63.6124   90.3850   16.7660 F       1  UNL1       -0.2028
     33 C          66.8745   92.5122   12.2016 C.2     1  UNL1        0.2480
     34 O          68.3118   92.1090   12.0550 O.2     1  UNL1       -0.2701
     35 N          66.2527   93.4471   11.2070 N.am    1  UNL1       -0.3024
     36 H          65.3093   93.7117   11.3032 H       1  UNL1        0.1497
     37 C          67.0681   93.9789   10.0659 C.3     1  UNL1        0.0720
     38 C          68.0374   93.7499    8.9443 C.3     1  UNL1        0.0213
     39 C          67.5113   95.1290    9.2111 C.3     1  UNL1        0.0213
@<TRIPOS>BOND
     1    17    18    1
     2    18    19    1
     3    18    15    1
     4    15    10    1
     5    10    11   ar
     6    11    12   ar
     7    12    13   ar
     8    13     1    1
     9     1     2   ar
    10     2     3   ar
    11     3     4   ar
    12     4     5   ar
    13     5     6   ar
    14     6     7   ar
    15     7    23    1
    16    23    25    1
    17    25    26   ar
    18    26    27   ar
    19    27    33    1
    20    33    34    2
    21    33    35   am
    22    35    37    1
    23    37    38    1
    24    38    39    1
    25    27    28   ar
    26    28    29    1
    27    28    30   ar
    28    30    31   ar
    29    31    32    1
    30     7     8   ar
    31     8     9   ar
    32     9    20    1
    33    20    21    1
    34    20    22    1
    35    13    14   ar
    36    14    10   ar
    37     9     1   ar
    38     8     3   ar
    39    31    25   ar
    40    39    37    1
    41    15    16    1
    42    23    24    1
    43    35    36    1
@<TRIPOS>MOLECULE
*****
 39 43 0 0 0
SMALL
GASTEIGER

@<TRIPOS>ATOM
      1 C          62.0290   86.5862   10.8913 C.ar    1  UNL1        0.0719
      2 C          62.7330   85.5110   11.6648 C.ar    1  UNL1        0.1049
      3 N          63.3393   86.1389   12.8847 N.ar    1  UNL1       -0.2242
      4 N          64.1488   85.5672   14.0108 N.ar    1  UNL1       -0.1422
      5 C          64.6288   86.4589   15.1173 C.ar    1  UNL1        0.2211
      6 N          64.2995   87.9221   15.0978 N.ar    1  UNL1       -0.2060
      7 C          63.4901   88.4938   13.9717 C.ar    1  UNL1        0.1515
      8 C          63.0100   87.6021   12.8652 C.ar    1  UNL1        0.1107
      9 C          62.2002   87.8786   11.6332 C.ar    1  UNL1        0.0040
     10 C          60.5736   85.5292    7.4518 C.ar    1  UNL1        0.3086
     11 N          59.7040   86.7049    7.7855 N.ar    1  UNL1       -0.0923
     12 N          60.1433   87.2439    9.1146 N.ar    1  UNL1       -0.1057
     13 C          61.2845   86.4014    9.6023 C.ar    1  UNL1        0.2525
     14 O          61.5504   85.3417    8.5746 O.2     1  UNL1       -0.4048
     15 N          60.4825   84.6887    6.2128 N.pl3   1  UNL1       -0.2888
     16 H          59.6112   84.3356    5.9204 H       1  UNL1        0.1511
     17 C          63.0657   84.4471    6.0765 C.3     1  UNL1        0.0213
     18 C          61.7189   84.3861    5.4191 C.3     1  UNL1        0.0733
     19 C          61.6083   84.0225    3.9681 C.3     1  UNL1        0.0213
     20 C          61.6569   89.2131   11.2163 C.3     1  UNL1        0.0241
     21 C          62.4326   90.0744   10.2640 C.3     1  UNL1        0.0047
     22 C          60.3382   89.6865   11.7516 C.3     1  UNL1        0.0047
     23 N          63.1608   89.9570   13.9522 N.pl3   1  UNL1       -0.2949
     24 H          62.2288   90.2503   13.8311 H       1  UNL1        0.1537
     25 C          64.2514   90.9735   14.1171 C.ar    1  UNL1        0.0775
     26 C          64.9418   91.5355   12.9098 C.ar    1  UNL1        0.0237
     27 C          66.0324   92.5520   13.0747 C.ar    1  UNL1        0.0821
     28 C          66.4327   93.0065   14.4470 C.ar    1  UNL1        0.1468
     29 F          67.5234   94.0231   14.6120 F       1  UNL1       -0.2039
     30 C          65.7424   92.4446   15.6543 C.ar    1  UNL1        0.0607
     31 C          64.6517   91.4281   15.4894 C.ar    1  UNL1        0.1557
     32 F          63.9614   90.8661   16.6967 F       1  UNL1       -0.2028
     33 C          66.7228   93.1140   11.8674 C.2     1  UNL1        0.2480
     34 O          67.9513   92.4446   11.3265 O.2     1  UNL1       -0.2701
     35 N          66.1846   94.3454   11.2011 N.am    1  UNL1       -0.3024
     36 H          65.3783   94.7847   11.5561 H       1  UNL1        0.1497
     37 C          66.8749   94.9074    9.9938 C.3     1  UNL1        0.0720
     38 C          67.5922   94.6991    8.6930 C.3     1  UNL1        0.0213
     39 C          67.3532   96.0891    9.2034 C.3     1  UNL1        0.0213
@<TRIPOS>BOND
     1    17    18    1
     2    18    19    1
     3    18    15    1
     4    15    10    1
     5    10    11   ar
     6    11    12   ar
     7    12    13   ar
     8    13     1    1
     9     1     2   ar
    10     2     3   ar
    11     3     4   ar
    12     4     5   ar
    13     5     6   ar
    14     6     7   ar
    15     7    23    1
    16    23    25    1
    17    25    26   ar
    18    26    27   ar
    19    27    33    1
    20    33    34    2
    21    33    35   am
    22    35    37    1
    23    37    38    1
    24    38    39    1
    25    27    28   ar
    26    28    29    1
    27    28    30   ar
    28    30    31   ar
    29    31    32    1
    30     7     8   ar
    31     8     9   ar
    32     9    20    1
    33    20    21    1
    34    20    22    1
    35    13    14   ar
    36    14    10   ar
    37     9     1   ar
    38     8     3   ar
    39    31    25   ar
    40    39    37    1
    41    15    16    1
    42    23    24    1
    43    35    36    1
@<TRIPOS>MOLECULE
*****
 39 43 0 0 0
SMALL
GASTEIGER

@<TRIPOS>ATOM
      1 C          64.8677   92.5697   11.3791 C.ar    1  UNL1        0.0719
      2 C          63.9307   91.9936   10.3593 C.ar    1  UNL1        0.1049
      3 N          63.4276   90.6804   10.8815 N.ar    1  UNL1       -0.2242
      4 N          62.4804   89.6687   10.3079 N.ar    1  UNL1       -0.1422
      5 C          62.1592   88.4215   11.0769 C.ar    1  UNL1        0.2211
      6 N          62.7854   88.1861   12.4194 N.ar    1  UNL1       -0.2060
      7 C          63.7326   89.1978   12.9930 C.ar    1  UNL1        0.1515
      8 C          64.0538   90.4450   12.2240 C.ar    1  UNL1        0.1107
      9 C          64.9438   91.6126   12.5316 C.ar    1  UNL1        0.0040
     10 C          66.7132   95.8239   10.3450 C.ar    1  UNL1        0.3086
     11 N          66.7408   95.9378   11.8404 N.ar    1  UNL1       -0.0923
     12 N          66.0528   94.7326   12.4098 N.ar    1  UNL1       -0.1057
     13 C          65.6000   93.8739   11.2663 C.ar    1  UNL1        0.2525
     14 O          66.0082   94.5484    9.9902 O.2     1  UNL1       -0.4048
     15 N          67.2895   96.8121    9.3747 N.pl3   1  UNL1       -0.2888
     16 H          67.9868   97.4417    9.6691 H       1  UNL1        0.1511
     17 C          65.3314   96.8553    7.6677 C.3     1  UNL1        0.0213
     18 C          66.8033   96.8411    7.9560 C.3     1  UNL1        0.0733
     19 C          67.7892   96.8558    6.8255 C.3     1  UNL1        0.0213
     20 C          65.7655   91.7917   13.7736 C.3     1  UNL1        0.0241
     21 C          67.2629   91.7485   13.6949 C.3     1  UNL1        0.0047
     22 C          65.0901   92.0139   15.0943 C.3     1  UNL1        0.0047
     23 N          64.3588   88.9624   14.3356 N.pl3   1  UNL1       -0.2949
     24 H          65.1031   89.5313   14.6382 H       1  UNL1        0.1537
     25 C          63.8509   87.8601   15.2171 C.ar    1  UNL1        0.0775
     26 C          63.8533   86.4436   14.7236 C.ar    1  UNL1        0.0237
     27 C          63.3454   85.3414   15.6051 C.ar    1  UNL1        0.0821
     28 C          62.8351   85.6556   16.9801 C.ar    1  UNL1        0.1468
     29 F          62.3271   84.5533   17.8617 F       1  UNL1       -0.2039
     30 C          62.8326   87.0720   17.4737 C.ar    1  UNL1        0.0607
     31 C          63.3405   88.1743   16.5922 C.ar    1  UNL1        0.1557
     32 F          63.3381   89.5908   17.0858 F       1  UNL1       -0.2028
     33 C          63.3478   83.9248   15.1115 C.2     1  UNL1        0.2480
     34 O          64.5713   83.0737   15.2809 O.2     1  UNL1       -0.2701
     35 N          62.1268   83.3595   14.4486 N.am    1  UNL1       -0.3024
     36 H          61.3238   83.9182   14.3375 H       1  UNL1        0.1497
     37 C          62.1291   81.9431   13.9551 C.3     1  UNL1        0.0720
     38 C          62.7279   80.8668   13.0989 C.3     1  UNL1        0.0213
     39 C          61.5345   80.5660   13.9564 C.3     1  UNL1        0.0213
@<TRIPOS>BOND
     1    17    18    1
     2    18    19    1
     3    18    15    1
     4    15    10    1
     5    10    11   ar
     6    11    12   ar
     7    12    13   ar
     8    13     1    1
     9     1     2   ar
    10     2     3   ar
    11     3     4   ar
    12     4     5   ar
    13     5     6   ar
    14     6     7   ar
    15     7    23    1
    16    23    25    1
    17    25    26   ar
    18    26    27   ar
    19    27    33    1
    20    33    34    2
    21    33    35   am
    22    35    37    1
    23    37    38    1
    24    38    39    1
    25    27    28   ar
    26    28    29    1
    27    28    30   ar
    28    30    31   ar
    29    31    32    1
    30     7     8   ar
    31     8     9   ar
    32     9    20    1
    33    20    21    1
    34    20    22    1
    35    13    14   ar
    36    14    10   ar
    37     9     1   ar
    38     8     3   ar
    39    31    25   ar
    40    39    37    1
    41    15    16    1
    42    23    24    1
    43    35    36    1
