@<TRIPOS>MOLECULE
*****
 49 54 0 0 0
SMALL
GASTEIGER

@<TRIPOS>ATOM
      1 N          63.9147   90.1385   14.7164 N.am    1  UNL1       -0.2735
      2 C          63.7284   89.3866   16.0009 C.2     1  UNL1        0.2492
      3 O          63.9064   90.0895   17.3140 O.2     1  UNL1       -0.2699
      4 C          63.3640   87.9318   15.9723 C.ar    1  UNL1        0.0567
      5 C          62.7427   87.2904   17.1775 C.ar    1  UNL1        0.0063
      6 C          62.3783   85.8357   17.1488 C.ar    1  UNL1        0.0225
      7 C          62.6352   85.0223   15.9150 C.ar    1  UNL1        0.1202
      8 N          62.3841   83.5786   15.5942 N.ar    1  UNL1       -0.1946
      9 C          62.8503   83.3278   14.1908 C.ar    1  UNL1        0.2924
     10 O          63.3894   84.6164   13.6441 O.2     1  UNL1       -0.4237
     11 C          63.2564   85.6636   14.7098 C.ar    1  UNL1        0.1662
     12 C          63.6208   87.1184   14.7384 C.ar    1  UNL1        0.0437
     13 N          62.7882   82.0182   13.4618 N.pl3   1  UNL1       -0.2636
     14 C          63.1416   81.7933   12.0215 C.3     1  UNL1        0.0951
     15 C          62.9336   80.3397   11.7148 C.3     1  UNL1        0.0233
     16 C          62.4517   79.6664   12.9655 C.3     1  UNL1        0.0233
     17 C          62.3618   80.7039   14.0453 C.3     1  UNL1        0.0951
     18 C          63.7367   89.4356   13.4033 C.3     1  UNL1        0.1245
     19 C          62.5490   89.7464   12.5412 C.3     1  UNL1        0.1484
     20 O          61.0672   89.7586   12.7739 O.3     1  UNL1       -0.3810
     21 H          60.6137   90.0174   11.9564 H       1  UNL1        0.2105
     22 C          62.7460   90.1469   11.1092 C.3     1  UNL1        0.1075
     23 O          64.3266   92.5614   11.3538 O.2     1  UNL1       -0.2264
     24 C          64.6202   91.9392   10.9511 C.2     1  UNL1        0.4020
     25 N          64.1027   90.5688   10.6282 N.am    1  UNL1       -0.2695
     26 H          64.6536   89.9463   10.1007 H       1  UNL1        0.1528
     27 O          65.9769   92.3611   10.4701 O.3     1  UNL1       -0.4291
     28 C          66.5549   93.6728   10.9122 C.3     1  UNL1        0.2447
     29 C          66.6295   94.8217    9.9506 C.ar    1  UNL1        0.0714
     30 C          67.7221   95.0665    8.9525 C.ar    1  UNL1        0.1053
     31 N          67.3925   96.3235    8.2033 N.ar    1  UNL1       -0.2350
     32 C          66.0962   96.8556    8.7385 C.ar    1  UNL1        0.1343
     33 S          65.6246   95.9275    9.8184 S.2     1  UNL1       -0.0652
     34 C          61.5863   90.1255   10.1581 C.3     1  UNL1        0.0485
     35 C          61.1838   88.8417    9.4949 C.ar    1  UNL1       -0.0204
     36 C          62.0568   87.6282    9.6178 C.ar    1  UNL1       -0.0042
     37 C          61.6544   86.3444    8.9546 C.ar    1  UNL1       -0.0003
     38 C          60.3789   86.2741    8.1684 C.ar    1  UNL1       -0.0000
     39 C          59.5059   87.4876    8.0454 C.ar    1  UNL1       -0.0003
     40 C          59.9083   88.7714    8.7087 C.ar    1  UNL1       -0.0042
     41 C          64.2792   91.5933   14.7450 C.3     1  UNL1        0.0938
     42 C          65.7132   92.0043   14.9017 C.3     1  UNL1        0.0202
     43 C          66.1469   92.7632   16.1207 C.3     1  UNL1        0.0073
     44 C          67.5809   93.1743   16.2775 C.3     1  UNL1        0.0666
     45 C          68.5813   92.8264   15.2153 C.3     1  UNL1        0.2639
     46 F          69.8901   92.7304   14.4887 F       1  UNL1       -0.2043
     47 F          69.4695   93.5519   16.1819 F       1  UNL1       -0.2043
     48 C          68.1476   92.0674   13.9963 C.3     1  UNL1        0.0666
     49 C          66.7134   91.6564   13.8395 C.3     1  UNL1        0.0073
@<TRIPOS>BOND
     1    23    24    2
     2    24    25   am
     3    25    22    1
     4    22    34    1
     5    34    35    1
     6    35    36   ar
     7    36    37   ar
     8    37    38   ar
     9    38    39   ar
    10    39    40   ar
    11    22    19    1
    12    19    20    1
    13    19    18    1
    14    18     1    1
    15     1    41    1
    16    41    42    1
    17    42    43    1
    18    43    44    1
    19    44    45    1
    20    45    46    1
    21    45    47    1
    22    45    48    1
    23    48    49    1
    24     1     2   am
    25     2     3    2
    26     2     4    1
    27     4     5   ar
    28     5     6   ar
    29     6     7   ar
    30     7     8   ar
    31     8     9   ar
    32     9    13    1
    33    13    14    1
    34    14    15    1
    35    15    16    1
    36    16    17    1
    37     9    10   ar
    38    10    11   ar
    39    11    12   ar
    40    24    27    1
    41    27    28    1
    42    28    29    1
    43    29    30   ar
    44    30    31   ar
    45    31    32   ar
    46    32    33   ar
    47    40    35   ar
    48    49    42    1
    49    12     4   ar
    50    33    29   ar
    51    11     7   ar
    52    17    13    1
    53    25    26    1
    54    20    21    1
@<TRIPOS>MOLECULE
*****
 49 54 0 0 0
SMALL
GASTEIGER

@<TRIPOS>ATOM
      1 N          64.3737   91.1264   12.9922 N.am    1  UNL1       -0.2735
      2 C          64.4023   90.7744   14.4500 C.2     1  UNL1        0.2492
      3 O          64.8149   91.8021   15.4618 O.2     1  UNL1       -0.2699
      4 C          64.0184   89.3947   14.8962 C.ar    1  UNL1        0.0567
      5 C          63.4870   89.1751   16.2816 C.ar    1  UNL1        0.0063
      6 C          63.1030   87.7954   16.7276 C.ar    1  UNL1        0.0225
      7 C          63.2505   86.6353   15.7883 C.ar    1  UNL1        0.1202
      8 N          62.9565   85.1728   15.9456 N.ar    1  UNL1       -0.1946
      9 C          63.3061   84.4885   14.6574 C.ar    1  UNL1        0.2924
     10 O          63.8163   85.5281   13.7040 O.2     1  UNL1       -0.4237
     11 C          63.7819   86.8549   14.4029 C.ar    1  UNL1        0.1662
     12 C          64.1659   88.2346   13.9568 C.ar    1  UNL1        0.0437
     13 N          63.1696   83.0221   14.3726 N.pl3   1  UNL1       -0.2636
     14 C          64.2651   82.1084   13.9088 C.3     1  UNL1        0.0951
     15 C          63.6861   80.7335   13.7511 C.3     1  UNL1        0.0233
     16 C          62.2330   80.7977   14.1176 C.3     1  UNL1        0.0233
     17 C          61.9138   82.2122   14.5017 C.3     1  UNL1        0.0951
     18 C          63.9612   90.0987   11.9805 C.3     1  UNL1        0.1245
     19 C          63.0417   90.4784   10.8578 C.3     1  UNL1        0.1484
     20 O          62.9259   91.6793    9.9665 O.3     1  UNL1       -0.3810
     21 H          62.1898   91.5529    9.3476 H       1  UNL1        0.2105
     22 C          61.9523   89.5400   10.4306 C.3     1  UNL1        0.1075
     23 O          59.5919   88.3560    9.2411 O.2     1  UNL1       -0.2264
     24 C          59.8924   89.0268    8.9326 C.2     1  UNL1        0.4020
     25 N          61.0654   89.8969    9.2746 N.am    1  UNL1       -0.2695
     26 H          61.2533   90.7023    8.7404 H       1  UNL1        0.1528
     27 O          59.0056   89.3837    7.7767 O.3     1  UNL1       -0.4291
     28 C          59.5561   89.3844    6.3814 C.3     1  UNL1        0.2447
     29 C          59.3538   90.5782    5.4959 C.ar    1  UNL1        0.0714
     30 C          58.0480   91.2661    5.2281 C.ar    1  UNL1        0.1053
     31 N          58.3090   92.4067    4.2895 N.ar    1  UNL1       -0.2350
     32 C          59.7760   92.4236    3.9772 C.ar    1  UNL1        0.1343
     33 S          60.4218   91.2936    4.7228 S.2     1  UNL1       -0.0652
     34 C          61.7496   88.2447   11.1593 C.3     1  UNL1        0.0485
     35 C          62.2129   86.9575   10.5440 C.ar    1  UNL1       -0.0204
     36 C          62.6951   86.9360    9.1238 C.ar    1  UNL1       -0.0042
     37 C          63.1584   85.6488    8.5085 C.ar    1  UNL1       -0.0003
     38 C          63.1394   84.3832    9.3134 C.ar    1  UNL1       -0.0000
     39 C          62.6572   84.4048   10.7336 C.ar    1  UNL1       -0.0003
     40 C          62.1939   85.6920   11.3489 C.ar    1  UNL1       -0.0042
     41 C          64.7577   92.5062   12.5461 C.3     1  UNL1        0.0938
     42 C          65.8576   92.6912   11.5432 C.3     1  UNL1        0.0202
     43 C          65.6884   93.6659   10.4157 C.3     1  UNL1        0.0073
     44 C          66.7883   93.8509    9.4128 C.3     1  UNL1        0.0666
     45 C          68.0576   93.0612    9.5374 C.3     1  UNL1        0.2639
     46 F          69.4340   92.5481    9.2338 F       1  UNL1       -0.2043
     47 F          68.3664   93.8577    8.3045 F       1  UNL1       -0.2043
     48 C          68.2268   92.0865   10.6649 C.3     1  UNL1        0.0666
     49 C          67.1268   91.9015   11.6679 C.3     1  UNL1        0.0073
@<TRIPOS>BOND
     1    23    24    2
     2    24    25   am
     3    25    22    1
     4    22    34    1
     5    34    35    1
     6    35    36   ar
     7    36    37   ar
     8    37    38   ar
     9    38    39   ar
    10    39    40   ar
    11    22    19    1
    12    19    20    1
    13    19    18    1
    14    18     1    1
    15     1    41    1
    16    41    42    1
    17    42    43    1
    18    43    44    1
    19    44    45    1
    20    45    46    1
    21    45    47    1
    22    45    48    1
    23    48    49    1
    24     1     2   am
    25     2     3    2
    26     2     4    1
    27     4     5   ar
    28     5     6   ar
    29     6     7   ar
    30     7     8   ar
    31     8     9   ar
    32     9    13    1
    33    13    14    1
    34    14    15    1
    35    15    16    1
    36    16    17    1
    37     9    10   ar
    38    10    11   ar
    39    11    12   ar
    40    24    27    1
    41    27    28    1
    42    28    29    1
    43    29    30   ar
    44    30    31   ar
    45    31    32   ar
    46    32    33   ar
    47    40    35   ar
    48    49    42    1
    49    12     4   ar
    50    33    29   ar
    51    11     7   ar
    52    17    13    1
    53    25    26    1
    54    20    21    1
@<TRIPOS>MOLECULE
*****
 49 54 0 0 0
SMALL
GASTEIGER

@<TRIPOS>ATOM
      1 N          62.9958   89.3606   12.6273 N.am    1  UNL1       -0.2735
      2 C          63.7827   88.6601   13.6950 C.2     1  UNL1        0.2492
      3 O          64.5063   89.4581   14.7389 O.2     1  UNL1       -0.2699
      4 C          63.8461   87.1616   13.7188 C.ar    1  UNL1        0.0567
      5 C          64.4042   86.4535   14.9176 C.ar    1  UNL1        0.0063
      6 C          64.4676   84.9551   14.9414 C.ar    1  UNL1        0.0225
      7 C          63.9728   84.1647   13.7664 C.ar    1  UNL1        0.1202
      8 N          63.9084   82.6890   13.5048 N.ar    1  UNL1       -0.1946
      9 C          63.3105   82.4852   12.1443 C.ar    1  UNL1        0.2924
     10 O          63.0054   83.8348   11.5651 O.2     1  UNL1       -0.4237
     11 C          63.4147   84.8728   12.5676 C.ar    1  UNL1        0.1662
     12 C          63.3514   86.3712   12.5439 C.ar    1  UNL1        0.0437
     13 N          63.0615   81.1637   11.4796 N.pl3   1  UNL1       -0.2636
     14 C          62.6791   79.8879   12.1697 C.3     1  UNL1        0.0951
     15 C          62.5324   78.8218   11.1247 C.3     1  UNL1        0.0233
     16 C          62.8240   79.4387    9.7889 C.3     1  UNL1        0.0233
     17 C          63.1510   80.8862   10.0083 C.3     1  UNL1        0.0951
     18 C          62.2722   88.5627   11.5834 C.3     1  UNL1        0.1245
     19 C          61.3111   89.2415   10.6530 C.3     1  UNL1        0.1484
     20 O          60.7075   90.6136   10.5976 O.3     1  UNL1       -0.3810
     21 H          60.1182   90.6767    9.8297 H       1  UNL1        0.2105
     22 C          60.7534   88.4966    9.4765 C.3     1  UNL1        0.1075
     23 O          58.6940   88.2042    7.4612 O.2     1  UNL1       -0.2264
     24 C          59.2281   88.7922    7.3942 C.2     1  UNL1        0.4020
     25 N          60.3987   89.2359    8.2204 N.am    1  UNL1       -0.2695
     26 H          60.9343   90.0123    7.9383 H       1  UNL1        0.1528
     27 O          58.8734   89.5314    6.1381 O.3     1  UNL1       -0.4291
     28 C          59.0980   91.0119    6.0503 C.3     1  UNL1        0.2447
     29 C          59.8145   91.5929    4.8674 C.ar    1  UNL1        0.0714
     30 C          61.2427   91.3355    4.4880 C.ar    1  UNL1        0.1053
     31 N          61.5395   92.1168    3.2425 N.ar    1  UNL1       -0.2350
     32 C          60.2947   92.8571    2.8521 C.ar    1  UNL1        0.1343
     33 S          59.2286   92.5333    3.8564 S.2     1  UNL1       -0.0652
     34 C          60.5503   87.0126    9.5561 C.3     1  UNL1        0.0485
     35 C          61.2361   86.1081    8.5755 C.ar    1  UNL1       -0.0204
     36 C          62.6849   85.7650    8.7580 C.ar    1  UNL1       -0.0042
     37 C          63.3707   84.8605    7.7774 C.ar    1  UNL1       -0.0003
     38 C          62.6077   84.2991    6.6144 C.ar    1  UNL1       -0.0000
     39 C          61.1589   84.6422    6.4319 C.ar    1  UNL1       -0.0003
     40 C          60.4731   85.5467    7.4125 C.ar    1  UNL1       -0.0042
     41 C          62.9324   90.8591   12.6035 C.3     1  UNL1        0.0938
     42 C          64.0786   91.6495   12.0454 C.3     1  UNL1        0.0202
     43 C          65.1785   92.1177   12.9515 C.3     1  UNL1        0.0073
     44 C          66.3247   92.9080   12.3934 C.3     1  UNL1        0.0666
     45 C          66.3710   93.2303   10.9291 C.3     1  UNL1        0.2639
     46 F          66.8581   93.7816    9.6219 F       1  UNL1       -0.2043
     47 F          67.6400   93.8899   11.3812 F       1  UNL1       -0.2043
     48 C          65.2711   92.7621   10.0230 C.3     1  UNL1        0.0666
     49 C          64.1249   91.9717   10.5812 C.3     1  UNL1        0.0073
@<TRIPOS>BOND
     1    23    24    2
     2    24    25   am
     3    25    22    1
     4    22    34    1
     5    34    35    1
     6    35    36   ar
     7    36    37   ar
     8    37    38   ar
     9    38    39   ar
    10    39    40   ar
    11    22    19    1
    12    19    20    1
    13    19    18    1
    14    18     1    1
    15     1    41    1
    16    41    42    1
    17    42    43    1
    18    43    44    1
    19    44    45    1
    20    45    46    1
    21    45    47    1
    22    45    48    1
    23    48    49    1
    24     1     2   am
    25     2     3    2
    26     2     4    1
    27     4     5   ar
    28     5     6   ar
    29     6     7   ar
    30     7     8   ar
    31     8     9   ar
    32     9    13    1
    33    13    14    1
    34    14    15    1
    35    15    16    1
    36    16    17    1
    37     9    10   ar
    38    10    11   ar
    39    11    12   ar
    40    24    27    1
    41    27    28    1
    42    28    29    1
    43    29    30   ar
    44    30    31   ar
    45    31    32   ar
    46    32    33   ar
    47    40    35   ar
    48    49    42    1
    49    12     4   ar
    50    33    29   ar
    51    11     7   ar
    52    17    13    1
    53    25    26    1
    54    20    21    1
@<TRIPOS>MOLECULE
*****
 49 54 0 0 0
SMALL
GASTEIGER

@<TRIPOS>ATOM
      1 N          62.7539   88.1010   12.5031 N.am    1  UNL1       -0.2735
      2 C          63.5850   88.7566   13.5658 C.2     1  UNL1        0.2492
      3 O          63.6874   88.1356   14.9274 O.2     1  UNL1       -0.2699
      4 C          64.3137   90.0332   13.2670 C.ar    1  UNL1        0.0567
      5 C          65.1293   90.6990   14.3354 C.ar    1  UNL1        0.0063
      6 C          65.8579   91.9756   14.0366 C.ar    1  UNL1        0.0225
      7 C          65.7710   92.5864   12.6694 C.ar    1  UNL1        0.1202
      8 N          66.3754   93.8286   12.0847 N.ar    1  UNL1       -0.1946
      9 C          65.9333   93.9305   10.6550 C.ar    1  UNL1        0.2924
     10 O          65.0557   92.7513   10.3560 O.2     1  UNL1       -0.4237
     11 C          64.9554   91.9207   11.6010 C.ar    1  UNL1        0.1662
     12 C          64.2267   90.6441   11.8998 C.ar    1  UNL1        0.0437
     13 N          66.3038   95.0202    9.6930 N.pl3   1  UNL1       -0.2636
     14 C          67.6966   95.4045    9.2900 C.3     1  UNL1        0.0951
     15 C          67.6000   96.5388    8.3131 C.3     1  UNL1        0.0233
     16 C          66.1477   96.8554    8.1125 C.3     1  UNL1        0.0233
     17 C          65.3465   95.9168    8.9654 C.3     1  UNL1        0.0951
     18 C          62.6515   88.7220   11.1415 C.3     1  UNL1        0.1245
     19 C          61.3289   89.2258   10.6446 C.3     1  UNL1        0.1484
     20 O          60.3459   90.2420   11.1457 O.3     1  UNL1       -0.3810
     21 H          59.5918   90.2898   10.5375 H       1  UNL1        0.2105
     22 C          60.7449   88.6757    9.3772 C.3     1  UNL1        0.1075
     23 O          58.9919   88.6854    7.0718 O.2     1  UNL1       -0.2264
     24 C          59.5436   89.2558    7.1477 C.2     1  UNL1        0.4020
     25 N          60.5927   89.5606    8.1755 N.am    1  UNL1       -0.2695
     26 H          61.1814   90.3414    8.0615 H       1  UNL1        0.1528
     27 O          59.3915   90.1406    5.9461 O.3     1  UNL1       -0.4291
     28 C          60.5678   90.9168    5.4325 C.3     1  UNL1        0.2447
     29 C          60.4099   91.8194    4.2448 C.ar    1  UNL1        0.0714
     30 C          59.2260   92.6929    3.9524 C.ar    1  UNL1        0.1053
     31 N          59.4927   93.4204    2.6680 N.ar    1  UNL1       -0.2350
     32 C          60.8414   92.9964    2.1666 C.ar    1  UNL1        0.1343
     33 S          61.4082   92.0070    3.1411 S.2     1  UNL1       -0.0652
     34 C          60.3130   87.2407    9.3114 C.3     1  UNL1        0.0485
     35 C          61.0332   86.2813    8.4110 C.ar    1  UNL1       -0.0204
     36 C          62.5005   86.0334    8.5994 C.ar    1  UNL1       -0.0042
     37 C          63.2207   85.0739    7.6989 C.ar    1  UNL1       -0.0003
     38 C          62.4736   84.3624    6.6101 C.ar    1  UNL1       -0.0000
     39 C          61.0063   84.6103    6.4218 C.ar    1  UNL1       -0.0003
     40 C          60.2861   85.5698    7.3222 C.ar    1  UNL1       -0.0042
     41 C          62.0252   86.8243   12.8019 C.3     1  UNL1        0.0938
     42 C          62.6759   85.5041   12.5130 C.3     1  UNL1        0.0202
     43 C          63.6931   84.9453   13.4633 C.3     1  UNL1        0.0073
     44 C          64.3438   83.6251   13.1744 C.3     1  UNL1        0.0666
     45 C          63.9773   82.8635   11.9351 C.3     1  UNL1        0.2639
     46 F          63.9622   81.7769   10.9012 F       1  UNL1       -0.2043
     47 F          64.9892   81.9274   12.5263 F       1  UNL1       -0.2043
     48 C          62.9601   83.4222   10.9848 C.3     1  UNL1        0.0666
     49 C          62.3094   84.7426   11.2738 C.3     1  UNL1        0.0073
@<TRIPOS>BOND
     1    23    24    2
     2    24    25   am
     3    25    22    1
     4    22    34    1
     5    34    35    1
     6    35    36   ar
     7    36    37   ar
     8    37    38   ar
     9    38    39   ar
    10    39    40   ar
    11    22    19    1
    12    19    20    1
    13    19    18    1
    14    18     1    1
    15     1    41    1
    16    41    42    1
    17    42    43    1
    18    43    44    1
    19    44    45    1
    20    45    46    1
    21    45    47    1
    22    45    48    1
    23    48    49    1
    24     1     2   am
    25     2     3    2
    26     2     4    1
    27     4     5   ar
    28     5     6   ar
    29     6     7   ar
    30     7     8   ar
    31     8     9   ar
    32     9    13    1
    33    13    14    1
    34    14    15    1
    35    15    16    1
    36    16    17    1
    37     9    10   ar
    38    10    11   ar
    39    11    12   ar
    40    24    27    1
    41    27    28    1
    42    28    29    1
    43    29    30   ar
    44    30    31   ar
    45    31    32   ar
    46    32    33   ar
    47    40    35   ar
    48    49    42    1
    49    12     4   ar
    50    33    29   ar
    51    11     7   ar
    52    17    13    1
    53    25    26    1
    54    20    21    1
@<TRIPOS>MOLECULE
*****
 49 54 0 0 0
SMALL
GASTEIGER

@<TRIPOS>ATOM
      1 N          63.5162   89.0228   14.5327 N.am    1  UNL1       -0.2735
      2 C          64.0937   90.1605   15.3214 C.2     1  UNL1        0.2492
      3 O          63.9358   90.1957   16.8126 O.2     1  UNL1       -0.2699
      4 C          64.8291   91.2631   14.6188 C.ar    1  UNL1        0.0567
      5 C          65.8844   92.0428   15.3457 C.ar    1  UNL1        0.0063
      6 C          66.6198   93.1453   14.6432 C.ar    1  UNL1        0.0225
      7 C          66.2998   93.4682   13.2137 C.ar    1  UNL1        0.1202
      8 N          66.8541   94.4919   12.2676 N.ar    1  UNL1       -0.1946
      9 C          66.1413   94.3448   10.9560 C.ar    1  UNL1        0.2924
     10 O          65.1466   93.2303   11.0915 O.2     1  UNL1       -0.4237
     11 C          65.2445   92.6885   12.4868 C.ar    1  UNL1        0.1662
     12 C          64.5092   91.5860   13.1893 C.ar    1  UNL1        0.0437
     13 N          66.3812   95.1678    9.7250 N.pl3   1  UNL1       -0.2636
     14 C          65.5524   96.3311    9.2670 C.3     1  UNL1        0.0951
     15 C          66.1509   96.8542    7.9948 C.3     1  UNL1        0.0233
     16 C          67.3496   96.0142    7.6668 C.3     1  UNL1        0.0233
     17 C          67.4918   94.9719    8.7362 C.3     1  UNL1        0.0951
     18 C          63.6741   88.9876   13.0414 C.3     1  UNL1        0.1245
     19 C          62.5065   89.3082   12.1558 C.3     1  UNL1        0.1484
     20 O          61.5997   90.4948   12.0158 O.3     1  UNL1       -0.3810
     21 H          60.9486   90.3235   11.3175 H       1  UNL1        0.2105
     22 C          62.0381   88.3078   11.1410 C.3     1  UNL1        0.1075
     23 O          59.8486   88.6504    9.2764 O.2     1  UNL1       -0.2264
     24 C          60.5966   88.7752    9.0306 C.2     1  UNL1        0.4020
     25 N          61.9389   88.6962    9.6955 N.am    1  UNL1       -0.2695
     26 H          62.7547   88.8991    9.1832 H       1  UNL1        0.1528
     27 O          60.4973   89.1635    7.5852 O.3     1  UNL1       -0.4291
     28 C          59.1528   89.2802    6.9305 C.3     1  UNL1        0.2447
     29 C          58.9043   90.3549    5.9139 C.ar    1  UNL1        0.0714
     30 C          57.5631   90.8848    5.5010 C.ar    1  UNL1        0.1053
     31 N          57.7832   91.9457    4.4636 N.ar    1  UNL1       -0.2350
     32 C          59.2605   92.0714    4.2355 C.ar    1  UNL1        0.1343
     33 S          59.9533   91.0883    5.1318 S.2     1  UNL1       -0.0652
     34 C          61.6689   86.9193   11.5716 C.3     1  UNL1        0.0485
     35 C          62.3789   85.7372   10.9812 C.ar    1  UNL1       -0.0204
     36 C          62.8233   84.6105   11.8660 C.ar    1  UNL1       -0.0042
     37 C          63.5333   83.4284   11.2756 C.ar    1  UNL1       -0.0003
     38 C          63.7989   83.3731    9.8004 C.ar    1  UNL1       -0.0000
     39 C          63.3545   84.4998    8.9156 C.ar    1  UNL1       -0.0003
     40 C          62.6445   85.6819    9.5060 C.ar    1  UNL1       -0.0042
     41 C          62.7808   87.9202   15.2352 C.3     1  UNL1        0.0938
     42 C          63.2698   86.5062   15.1292 C.3     1  UNL1        0.0202
     43 C          64.6610   86.2282   14.6420 C.3     1  UNL1        0.0073
     44 C          65.1500   84.8141   14.5360 C.3     1  UNL1        0.0666
     45 C          64.2478   83.6780   14.9172 C.3     1  UNL1        0.2639
     46 F          63.7712   82.2763   15.1583 F       1  UNL1       -0.2043
     47 F          65.4734   82.9132   14.5137 F       1  UNL1       -0.2043
     48 C          62.8566   83.9559   15.4044 C.3     1  UNL1        0.0666
     49 C          62.3676   85.3701   15.5104 C.3     1  UNL1        0.0073
@<TRIPOS>BOND
     1    23    24    2
     2    24    25   am
     3    25    22    1
     4    22    34    1
     5    34    35    1
     6    35    36   ar
     7    36    37   ar
     8    37    38   ar
     9    38    39   ar
    10    39    40   ar
    11    22    19    1
    12    19    20    1
    13    19    18    1
    14    18     1    1
    15     1    41    1
    16    41    42    1
    17    42    43    1
    18    43    44    1
    19    44    45    1
    20    45    46    1
    21    45    47    1
    22    45    48    1
    23    48    49    1
    24     1     2   am
    25     2     3    2
    26     2     4    1
    27     4     5   ar
    28     5     6   ar
    29     6     7   ar
    30     7     8   ar
    31     8     9   ar
    32     9    13    1
    33    13    14    1
    34    14    15    1
    35    15    16    1
    36    16    17    1
    37     9    10   ar
    38    10    11   ar
    39    11    12   ar
    40    24    27    1
    41    27    28    1
    42    28    29    1
    43    29    30   ar
    44    30    31   ar
    45    31    32   ar
    46    32    33   ar
    47    40    35   ar
    48    49    42    1
    49    12     4   ar
    50    33    29   ar
    51    11     7   ar
    52    17    13    1
    53    25    26    1
    54    20    21    1
@<TRIPOS>MOLECULE
*****
 49 54 0 0 0
SMALL
GASTEIGER

@<TRIPOS>ATOM
      1 N          59.8391   88.8730    7.8532 N.am    1  UNL1       -0.2735
      2 C          59.7244   87.3779    7.8150 C.2     1  UNL1        0.2492
      3 O          58.5897   86.7313    7.0772 O.2     1  UNL1       -0.2699
      4 C          60.7445   86.5293    8.5147 C.ar    1  UNL1        0.0567
      5 C          61.8166   85.8402    7.7237 C.ar    1  UNL1        0.0063
      6 C          62.8366   84.9917    8.4234 C.ar    1  UNL1        0.0225
      7 C          62.7845   84.8322    9.9140 C.ar    1  UNL1        0.1202
      8 N          63.6473   84.0658   10.8722 N.ar    1  UNL1       -0.1946
      9 C          63.1084   84.2812   12.2553 C.ar    1  UNL1        0.2924
     10 O          61.9125   85.1808   12.1519 O.2     1  UNL1       -0.4237
     11 C          61.7123   85.5213   10.7049 C.ar    1  UNL1        0.1662
     12 C          60.6923   86.3699   10.0052 C.ar    1  UNL1        0.0437
     13 N          63.6672   83.6992   13.5199 N.pl3   1  UNL1       -0.2636
     14 C          64.4469   84.4430   14.5635 C.3     1  UNL1        0.0951
     15 C          64.8059   83.4747   15.6514 C.3     1  UNL1        0.0233
     16 C          64.2481   82.1327   15.2803 C.3     1  UNL1        0.0233
     17 C          63.5443   82.2715   13.9628 C.3     1  UNL1        0.0951
     18 C          60.9738   89.5196    8.5911 C.3     1  UNL1        0.1245
     19 C          60.7603   90.0526    9.9769 C.3     1  UNL1        0.1484
     20 O          59.5715   90.1428   10.8871 O.3     1  UNL1       -0.3810
     21 H          59.8344   90.5609   11.7219 H       1  UNL1        0.2105
     22 C          61.9066   90.6564   10.7330 C.3     1  UNL1        0.1075
     23 O          64.4419   91.8095   11.5269 O.2     1  UNL1       -0.2264
     24 C          64.2804   91.7122   10.7523 C.2     1  UNL1        0.4020
     25 N          63.1078   91.1659    9.9930 N.am    1  UNL1       -0.2695
     26 H          63.1266   91.1417    9.0090 H       1  UNL1        0.1528
     27 O          65.4816   92.2216   10.0124 O.3     1  UNL1       -0.4291
     28 C          66.4614   93.1231   10.7033 C.3     1  UNL1        0.2447
     29 C          66.7987   94.4590   10.1103 C.ar    1  UNL1        0.0714
     30 C          67.5194   94.6923    8.8157 C.ar    1  UNL1        0.1053
     31 N          67.6407   96.1736    8.6130 N.ar    1  UNL1       -0.2350
     32 C          66.9948   96.8558    9.7825 C.ar    1  UNL1        0.1343
     33 S          66.4745   95.7961   10.7078 S.2     1  UNL1       -0.0652
     34 C          61.8516   90.7506   12.2290 C.3     1  UNL1        0.0485
     35 C          62.7058   89.8482   13.0692 C.ar    1  UNL1       -0.0204
     36 C          63.1221   88.5064   12.5438 C.ar    1  UNL1       -0.0042
     37 C          63.9763   87.6040   13.3841 C.ar    1  UNL1       -0.0003
     38 C          64.4141   88.0434   14.7498 C.ar    1  UNL1       -0.0000
     39 C          63.9978   89.3853   15.2752 C.ar    1  UNL1       -0.0003
     40 C          63.1436   90.2877   14.4349 C.ar    1  UNL1       -0.0042
     41 C          58.8190   89.7216    7.1536 C.3     1  UNL1        0.0938
     42 C          59.2169   90.5459    5.9653 C.3     1  UNL1        0.0202
     43 C          60.6525   90.5946    5.5330 C.3     1  UNL1        0.0073
     44 C          61.0504   91.4190    4.3447 C.3     1  UNL1        0.0666
     45 C          60.0127   92.1947    3.5886 C.3     1  UNL1        0.2639
     46 F          59.3997   93.0960    2.5582 F       1  UNL1       -0.2043
     47 F          61.2353   92.5564    2.7985 F       1  UNL1       -0.2043
     48 C          58.5772   92.1460    4.0209 C.3     1  UNL1        0.0666
     49 C          58.1793   91.3216    5.2093 C.3     1  UNL1        0.0073
@<TRIPOS>BOND
     1    23    24    2
     2    24    25   am
     3    25    22    1
     4    22    34    1
     5    34    35    1
     6    35    36   ar
     7    36    37   ar
     8    37    38   ar
     9    38    39   ar
    10    39    40   ar
    11    22    19    1
    12    19    20    1
    13    19    18    1
    14    18     1    1
    15     1    41    1
    16    41    42    1
    17    42    43    1
    18    43    44    1
    19    44    45    1
    20    45    46    1
    21    45    47    1
    22    45    48    1
    23    48    49    1
    24     1     2   am
    25     2     3    2
    26     2     4    1
    27     4     5   ar
    28     5     6   ar
    29     6     7   ar
    30     7     8   ar
    31     8     9   ar
    32     9    13    1
    33    13    14    1
    34    14    15    1
    35    15    16    1
    36    16    17    1
    37     9    10   ar
    38    10    11   ar
    39    11    12   ar
    40    24    27    1
    41    27    28    1
    42    28    29    1
    43    29    30   ar
    44    30    31   ar
    45    31    32   ar
    46    32    33   ar
    47    40    35   ar
    48    49    42    1
    49    12     4   ar
    50    33    29   ar
    51    11     7   ar
    52    17    13    1
    53    25    26    1
    54    20    21    1
@<TRIPOS>MOLECULE
*****
 49 54 0 0 0
SMALL
GASTEIGER

@<TRIPOS>ATOM
      1 N          59.8309   88.8811    7.6753 N.am    1  UNL1       -0.2735
      2 C          59.6159   87.4039    7.8224 C.2     1  UNL1        0.2492
      3 O          58.3678   86.7702    7.2832 O.2     1  UNL1       -0.2699
      4 C          60.6491   86.5603    8.5086 C.ar    1  UNL1        0.0567
      5 C          61.7021   85.8601    7.7019 C.ar    1  UNL1        0.0063
      6 C          62.7353   85.0165    8.3881 C.ar    1  UNL1        0.0225
      7 C          62.7154   84.8731    9.8811 C.ar    1  UNL1        0.1202
      8 N          63.5972   84.1148   10.8285 N.ar    1  UNL1       -0.1946
      9 C          63.0892   84.3463   12.2207 C.ar    1  UNL1        0.2924
     10 O          61.8934   85.2477   12.1338 O.2     1  UNL1       -0.4237
     11 C          61.6624   85.5733   10.6879 C.ar    1  UNL1        0.1662
     12 C          60.6292   86.4169   10.0016 C.ar    1  UNL1        0.0437
     13 N          63.6742   83.7765   13.4789 N.pl3   1  UNL1       -0.2636
     14 C          62.9928   82.8226   14.4148 C.3     1  UNL1        0.0951
     15 C          63.9408   82.5171   15.5364 C.3     1  UNL1        0.0233
     16 C          65.2080   83.2822   15.2937 C.3     1  UNL1        0.0233
     17 C          65.0432   84.0605   14.0220 C.3     1  UNL1        0.0951
     18 C          61.0790   89.5147    8.2144 C.3     1  UNL1        0.1245
     19 C          61.1338   89.9659    9.6440 C.3     1  UNL1        0.1484
     20 O          60.0939   90.2663   10.6825 O.3     1  UNL1       -0.3810
     21 H          60.5285   90.5366   11.5065 H       1  UNL1        0.2105
     22 C          62.4590   90.2072   10.3040 C.3     1  UNL1        0.1075
     23 O          62.4019   89.1969   13.0176 O.2     1  UNL1       -0.2264
     24 C          62.8730   88.8466   12.4783 C.2     1  UNL1        0.4020
     25 N          63.1525   89.0893   11.0247 N.am    1  UNL1       -0.2695
     26 H          63.7912   88.5149   10.5436 H       1  UNL1        0.1528
     27 O          63.5664   87.7288   13.1989 O.3     1  UNL1       -0.4291
     28 C          64.2984   88.0020   14.4794 C.3     1  UNL1        0.2447
     29 C          63.6873   87.6078   15.7914 C.ar    1  UNL1        0.0714
     30 C          63.1772   88.5468   16.8440 C.ar    1  UNL1        0.1053
     31 N          62.6537   87.7248   17.9843 N.ar    1  UNL1       -0.2350
     32 C          62.8402   86.2776   17.6364 C.ar    1  UNL1        0.1343
     33 S          63.4790   86.2053   16.2811 S.2     1  UNL1       -0.0652
     34 C          63.0906   91.5664   10.2433 C.3     1  UNL1        0.0485
     35 C          64.3156   91.8611   11.0574 C.ar    1  UNL1       -0.0204
     36 C          64.2999   91.6440   12.5415 C.ar    1  UNL1       -0.0042
     37 C          65.5248   91.9388   13.3555 C.ar    1  UNL1       -0.0003
     38 C          66.7654   92.4507   12.6855 C.ar    1  UNL1       -0.0000
     39 C          66.7810   92.6679   11.2014 C.ar    1  UNL1       -0.0003
     40 C          65.5561   92.3731   10.3874 C.ar    1  UNL1       -0.0042
     41 C          58.7977   89.7247    6.9890 C.3     1  UNL1        0.0938
     42 C          59.1872   90.5912    5.8283 C.3     1  UNL1        0.0202
     43 C          60.6172   90.6440    5.3784 C.3     1  UNL1        0.0073
     44 C          61.0068   91.5104    4.2177 C.3     1  UNL1        0.0666
     45 C          59.9664   92.3242    3.5067 C.3     1  UNL1        0.2639
     46 F          59.3480   93.2704    2.5207 F       1  UNL1       -0.2043
     47 F          61.1816   92.7056    2.7145 F       1  UNL1       -0.2043
     48 C          58.5364   92.2715    3.9566 C.3     1  UNL1        0.0666
     49 C          58.1468   91.4049    5.1174 C.3     1  UNL1        0.0073
@<TRIPOS>BOND
     1    23    24    2
     2    24    25   am
     3    25    22    1
     4    22    34    1
     5    34    35    1
     6    35    36   ar
     7    36    37   ar
     8    37    38   ar
     9    38    39   ar
    10    39    40   ar
    11    22    19    1
    12    19    20    1
    13    19    18    1
    14    18     1    1
    15     1    41    1
    16    41    42    1
    17    42    43    1
    18    43    44    1
    19    44    45    1
    20    45    46    1
    21    45    47    1
    22    45    48    1
    23    48    49    1
    24     1     2   am
    25     2     3    2
    26     2     4    1
    27     4     5   ar
    28     5     6   ar
    29     6     7   ar
    30     7     8   ar
    31     8     9   ar
    32     9    13    1
    33    13    14    1
    34    14    15    1
    35    15    16    1
    36    16    17    1
    37     9    10   ar
    38    10    11   ar
    39    11    12   ar
    40    24    27    1
    41    27    28    1
    42    28    29    1
    43    29    30   ar
    44    30    31   ar
    45    31    32   ar
    46    32    33   ar
    47    40    35   ar
    48    49    42    1
    49    12     4   ar
    50    33    29   ar
    51    11     7   ar
    52    17    13    1
    53    25    26    1
    54    20    21    1
@<TRIPOS>MOLECULE
*****
 49 54 0 0 0
SMALL
GASTEIGER

@<TRIPOS>ATOM
      1 N          59.7746   88.9127    7.7235 N.am    1  UNL1       -0.2735
      2 C          59.6403   87.4196    7.7726 C.2     1  UNL1        0.2492
      3 O          58.4858   86.7476    7.0904 O.2     1  UNL1       -0.2699
      4 C          60.6606   86.5984    8.5039 C.ar    1  UNL1        0.0567
      5 C          61.7368   85.8853    7.7401 C.ar    1  UNL1        0.0063
      6 C          62.7570   85.0642    8.4714 C.ar    1  UNL1        0.0225
      7 C          62.7010   84.9561    9.9665 C.ar    1  UNL1        0.1202
      8 N          63.5632   84.2255   10.9529 N.ar    1  UNL1       -0.1946
      9 C          63.0197   84.4870   12.3263 C.ar    1  UNL1        0.2924
     10 O          61.8218   85.3793   12.1887 O.2     1  UNL1       -0.4237
     11 C          61.6249   85.6692   10.7302 C.ar    1  UNL1        0.1662
     12 C          60.6047   86.4903    9.9989 C.ar    1  UNL1        0.0437
     13 N          63.5765   83.9505   13.6118 N.pl3   1  UNL1       -0.2636
     14 C          62.8749   83.0198   14.5561 C.3     1  UNL1        0.0951
     15 C          63.7974   82.7447   15.7065 C.3     1  UNL1        0.0233
     16 C          65.0690   83.5053   15.4731 C.3     1  UNL1        0.0233
     17 C          64.9324   84.2506   14.1785 C.3     1  UNL1        0.0951
     18 C          60.9292   89.5847    8.4056 C.3     1  UNL1        0.1245
     19 C          60.8311   89.9552    9.8559 C.3     1  UNL1        0.1484
     20 O          59.6866   90.2172   10.7894 O.3     1  UNL1       -0.3810
     21 H          60.0306   90.4334   11.6702 H       1  UNL1        0.2105
     22 C          62.0780   90.1348   10.6701 C.3     1  UNL1        0.1075
     23 O          64.6800   91.3400   10.2633 O.2     1  UNL1       -0.2264
     24 C          64.0827   91.7832   10.5502 C.2     1  UNL1        0.4020
     25 N          62.6456   91.5075   10.8798 N.am    1  UNL1       -0.2695
     26 H          62.0749   92.2274   11.2337 H       1  UNL1        0.1528
     27 O          64.6503   93.1557   10.7598 O.3     1  UNL1       -0.4291
     28 C          66.0290   93.3185   11.3279 C.3     1  UNL1        0.2447
     29 C          66.2778   93.0478   12.7822 C.ar    1  UNL1        0.0714
     30 C          66.6109   94.0729   13.8254 C.ar    1  UNL1        0.1053
     31 N          66.7761   93.3632   15.1365 N.ar    1  UNL1       -0.2350
     32 C          66.5451   91.8995   14.9036 C.ar    1  UNL1        0.1343
     33 S          66.2371   91.7046   13.4485 S.2     1  UNL1       -0.0652
     34 C          62.7574   88.9420   11.2746 C.3     1  UNL1        0.0485
     35 C          63.1576   88.9593   12.7201 C.ar    1  UNL1       -0.0204
     36 C          63.9012   87.7961   13.3065 C.ar    1  UNL1       -0.0042
     37 C          64.3013   87.8134   14.7520 C.ar    1  UNL1       -0.0003
     38 C          63.9579   88.9940   15.6112 C.ar    1  UNL1       -0.0000
     39 C          63.2143   90.1573   15.0248 C.ar    1  UNL1       -0.0003
     40 C          62.8141   90.1399   13.5793 C.ar    1  UNL1       -0.0042
     41 C          58.7544   89.7339    6.9922 C.3     1  UNL1        0.0938
     42 C          59.1730   90.5976    5.8395 C.3     1  UNL1        0.0202
     43 C          58.1499   91.4045    5.0965 C.3     1  UNL1        0.0073
     44 C          58.5686   92.2682    3.9438 C.3     1  UNL1        0.0666
     45 C          60.0105   92.3250    3.5341 C.3     1  UNL1        0.2639
     46 F          61.2460   92.7083    2.7748 F       1  UNL1       -0.2043
     47 F          59.4164   93.2650    2.5274 F       1  UNL1       -0.2043
     48 C          61.0336   91.5181    4.2771 C.3     1  UNL1        0.0666
     49 C          60.6149   90.6544    5.4299 C.3     1  UNL1        0.0073
@<TRIPOS>BOND
     1    23    24    2
     2    24    25   am
     3    25    22    1
     4    22    34    1
     5    34    35    1
     6    35    36   ar
     7    36    37   ar
     8    37    38   ar
     9    38    39   ar
    10    39    40   ar
    11    22    19    1
    12    19    20    1
    13    19    18    1
    14    18     1    1
    15     1    41    1
    16    41    42    1
    17    42    43    1
    18    43    44    1
    19    44    45    1
    20    45    46    1
    21    45    47    1
    22    45    48    1
    23    48    49    1
    24     1     2   am
    25     2     3    2
    26     2     4    1
    27     4     5   ar
    28     5     6   ar
    29     6     7   ar
    30     7     8   ar
    31     8     9   ar
    32     9    13    1
    33    13    14    1
    34    14    15    1
    35    15    16    1
    36    16    17    1
    37     9    10   ar
    38    10    11   ar
    39    11    12   ar
    40    24    27    1
    41    27    28    1
    42    28    29    1
    43    29    30   ar
    44    30    31   ar
    45    31    32   ar
    46    32    33   ar
    47    40    35   ar
    48    49    42    1
    49    12     4   ar
    50    33    29   ar
    51    11     7   ar
    52    17    13    1
    53    25    26    1
    54    20    21    1
@<TRIPOS>MOLECULE
*****
 49 54 0 0 0
SMALL
GASTEIGER

@<TRIPOS>ATOM
      1 N          63.8187   88.6445   15.2103 N.am    1  UNL1       -0.2735
      2 C          64.0945   90.0612   15.6185 C.2     1  UNL1        0.2492
      3 O          63.5340   90.5942   16.9037 O.2     1  UNL1       -0.2699
      4 C          64.9309   90.9452   14.7413 C.ar    1  UNL1        0.0567
      5 C          66.3812   91.1599   15.0580 C.ar    1  UNL1        0.0063
      6 C          67.2175   92.0438   14.1809 C.ar    1  UNL1        0.0225
      7 C          66.6034   92.7129   12.9871 C.ar    1  UNL1        0.1202
      8 N          67.1737   93.6321   11.9478 N.ar    1  UNL1       -0.1946
      9 C          66.0757   93.9854   10.9889 C.ar    1  UNL1        0.2924
     10 O          64.8269   93.2846   11.4354 O.2     1  UNL1       -0.4237
     11 C          65.1531   92.4982   12.6704 C.ar    1  UNL1        0.1662
     12 C          64.3168   91.6143   13.5475 C.ar    1  UNL1        0.0437
     13 N          66.2040   94.8820    9.7932 N.pl3   1  UNL1       -0.2636
     14 C          65.4838   96.1811    9.5841 C.3     1  UNL1        0.0951
     15 C          65.9098   96.7390    8.2583 C.3     1  UNL1        0.0233
     16 C          66.8931   95.7846    7.6482 C.3     1  UNL1        0.0233
     17 C          67.0750   94.6369    8.5969 C.3     1  UNL1        0.0951
     18 C          64.3792   88.1115   13.9251 C.3     1  UNL1        0.1245
     19 C          63.4853   87.9337   12.7337 C.3     1  UNL1        0.1484
     20 O          62.8495   88.8789   11.7577 O.3     1  UNL1       -0.3810
     21 H          62.3292   88.3754   11.1122 H       1  UNL1        0.2105
     22 C          63.0563   86.5583   12.3165 C.3     1  UNL1        0.1075
     23 O          62.4513   86.4670    9.4857 O.2     1  UNL1       -0.2264
     24 C          61.8622   86.3818   10.0159 C.2     1  UNL1        0.4020
     25 N          61.8020   86.3748   11.5146 N.am    1  UNL1       -0.2695
     26 H          60.9392   86.2497   11.9720 H       1  UNL1        0.1528
     27 O          60.6079   86.1984    9.2140 O.3     1  UNL1       -0.4291
     28 C          59.6233   87.3236    9.0936 C.3     1  UNL1        0.2447
     29 C          59.7809   88.5519    9.9402 C.ar    1  UNL1        0.0714
     30 C          60.4513   89.8282    9.5259 C.ar    1  UNL1        0.1053
     31 N          60.3806   90.7846   10.6793 N.ar    1  UNL1       -0.2350
     32 C          59.6664   90.0993   11.8065 C.ar    1  UNL1        0.1343
     33 S          59.2958   88.7194   11.3496 S.2     1  UNL1       -0.0652
     34 C          63.8817   85.3663   12.7011 C.3     1  UNL1        0.0485
     35 C          63.6972   84.0628   11.9823 C.ar    1  UNL1       -0.0204
     36 C          64.5480   83.7363   10.7909 C.ar    1  UNL1       -0.0042
     37 C          64.3635   82.4327   10.0721 C.ar    1  UNL1       -0.0003
     38 C          63.3282   81.4557   10.5446 C.ar    1  UNL1       -0.0000
     39 C          62.4774   81.7821   11.7360 C.ar    1  UNL1       -0.0003
     40 C          62.6619   83.0857   12.4549 C.ar    1  UNL1       -0.0042
     41 C          62.9823   87.7605   16.0875 C.3     1  UNL1        0.0938
     42 C          63.0147   86.2725   15.9014 C.3     1  UNL1        0.0202
     43 C          61.7332   85.5072   15.7525 C.3     1  UNL1        0.0073
     44 C          61.7656   84.0192   15.5665 C.3     1  UNL1        0.0666
     45 C          63.0795   83.2964   15.5293 C.3     1  UNL1        0.2639
     46 F          64.0675   82.1722   15.4282 F       1  UNL1       -0.2043
     47 F          62.1412   82.1407   15.3453 F       1  UNL1       -0.2043
     48 C          64.3610   84.0617   15.6782 C.3     1  UNL1        0.0666
     49 C          64.3285   85.5498   15.8642 C.3     1  UNL1        0.0073
@<TRIPOS>BOND
     1    23    24    2
     2    24    25   am
     3    25    22    1
     4    22    34    1
     5    34    35    1
     6    35    36   ar
     7    36    37   ar
     8    37    38   ar
     9    38    39   ar
    10    39    40   ar
    11    22    19    1
    12    19    20    1
    13    19    18    1
    14    18     1    1
    15     1    41    1
    16    41    42    1
    17    42    43    1
    18    43    44    1
    19    44    45    1
    20    45    46    1
    21    45    47    1
    22    45    48    1
    23    48    49    1
    24     1     2   am
    25     2     3    2
    26     2     4    1
    27     4     5   ar
    28     5     6   ar
    29     6     7   ar
    30     7     8   ar
    31     8     9   ar
    32     9    13    1
    33    13    14    1
    34    14    15    1
    35    15    16    1
    36    16    17    1
    37     9    10   ar
    38    10    11   ar
    39    11    12   ar
    40    24    27    1
    41    27    28    1
    42    28    29    1
    43    29    30   ar
    44    30    31   ar
    45    31    32   ar
    46    32    33   ar
    47    40    35   ar
    48    49    42    1
    49    12     4   ar
    50    33    29   ar
    51    11     7   ar
    52    17    13    1
    53    25    26    1
    54    20    21    1
