@<TRIPOS>MOLECULE
*****
 27 30 0 0 0
SMALL
GASTEIGER

@<TRIPOS>ATOM
      1 C          62.3462   86.2491   11.2636 C.ar    1  UNL1        0.0028
      2 C          62.5526   84.9776   10.4951 C.ar    1  UNL1        0.0002
      3 C          63.0779   83.7573   11.1913 C.ar    1  UNL1        0.0047
      4 C          63.3968   83.8084   12.6561 C.ar    1  UNL1        0.0562
      5 C          63.9221   82.5880   13.3524 C.ar    1  UNL1        0.2436
      6 N          64.2410   82.6391   14.8172 N.ar    1  UNL1       -0.1102
      7 N          64.0346   83.9106   15.5858 N.ar    1  UNL1       -0.1435
      8 C          63.5093   85.1310   14.8895 C.ar    1  UNL1        0.1224
      9 C          63.1904   85.0799   13.4247 C.ar    1  UNL1        0.0255
     10 C          62.6651   86.3002   12.7284 C.ar    1  UNL1        0.0018
     11 C          59.3897   88.0960    7.6538 C.ar    1  UNL1        0.1705
     12 N          59.3357   86.5973    7.6820 N.ar    1  UNL1       -0.0621
     13 O          60.2397   86.1215    8.7803 O.2     1  UNL1       -0.3522
     14 C          60.8525   87.3261    9.4309 C.ar    1  UNL1        0.1777
     15 C          61.8209   87.4695   10.5674 C.ar    1  UNL1        0.0333
     16 C          62.2641   88.8332   11.0076 C.ar    1  UNL1       -0.0188
     17 C          63.2326   88.9766   12.1440 C.3     1  UNL1        0.0311
     18 C          61.7388   90.0537   10.3113 C.ar    1  UNL1       -0.0040
     19 C          60.7703   89.9103    9.1749 C.ar    1  UNL1        0.0057
     20 C          60.3272   88.5465    8.7347 C.ar    1  UNL1        0.0717
     21 C          59.3716   90.0296    5.9187 C.3     1  UNL1        0.1097
     22 N          58.6383   88.9878    6.7104 N.pl3   1  UNL1       -0.3140
     23 H          57.6638   88.8892    6.6108 H       1  UNL1        0.1483
     24 O          64.1284   81.3165   12.5838 O.3     1  UNL1       -0.4630
     25 C          62.9711   80.3960   12.3321 C.3     1  UNL1        0.1678
     26 C          62.7950   79.7642   10.9831 C.3     1  UNL1        0.0473
     27 C          61.9900   80.1073   13.4293 C.3     1  UNL1        0.0473
@<TRIPOS>BOND
     1    21    22    1
     2    22    11    1
     3    11    12   ar
     4    12    13   ar
     5    13    14   ar
     6    14    15   ar
     7    15     1    1
     8     1     2   ar
     9     2     3   ar
    10     3     4   ar
    11     4     5   ar
    12     5    24    1
    13    24    25    1
    14    25    26    1
    15    25    27    1
    16     5     6   ar
    17     6     7   ar
    18     7     8   ar
    19     8     9   ar
    20     9    10   ar
    21    15    16   ar
    22    16    17    1
    23    16    18   ar
    24    18    19   ar
    25    19    20   ar
    26    20    11   ar
    27    20    14   ar
    28    10     1   ar
    29     9     4   ar
    30    22    23    1
@<TRIPOS>MOLECULE
*****
 27 30 0 0 0
SMALL
GASTEIGER

@<TRIPOS>ATOM
      1 C          63.6366   89.6955   13.3382 C.ar    1  UNL1        0.0028
      2 C          63.8274   88.2112   13.4402 C.ar    1  UNL1        0.0002
      3 C          63.1920   87.3023   12.4302 C.ar    1  UNL1        0.0047
      4 C          62.3658   87.8777   11.3183 C.ar    1  UNL1        0.0562
      5 C          61.7304   86.9687   10.3082 C.ar    1  UNL1        0.2436
      6 N          60.9042   87.5441    9.1963 N.ar    1  UNL1       -0.1102
      7 N          60.7135   89.0285    9.0944 N.ar    1  UNL1       -0.1435
      8 C          61.3489   89.9374   10.1044 C.ar    1  UNL1        0.1224
      9 C          62.1750   89.3620   11.2163 C.ar    1  UNL1        0.0255
     10 C          62.8104   90.2709   12.2263 C.ar    1  UNL1        0.0018
     11 C          67.1215   93.1861   14.2621 C.ar    1  UNL1        0.1705
     12 N          67.1574   92.7540   12.8262 N.ar    1  UNL1       -0.0621
     13 O          66.0934   91.7154   12.6280 O.2     1  UNL1       -0.3522
     14 C          65.4000   91.5057   13.9414 C.ar    1  UNL1        0.1777
     15 C          64.2720   90.6044   14.3483 C.ar    1  UNL1        0.0333
     16 C          63.7795   90.6122   15.7650 C.ar    1  UNL1       -0.0188
     17 C          62.6515   89.7109   16.1719 C.3     1  UNL1        0.0311
     18 C          64.4149   91.5212   16.7751 C.ar    1  UNL1       -0.0040
     19 C          65.5428   92.4224   16.3682 C.ar    1  UNL1        0.0057
     20 C          66.0354   92.4146   14.9514 C.ar    1  UNL1        0.0717
     21 C          69.0000   93.7961   15.9501 C.3     1  UNL1        0.1097
     22 N          68.0149   94.2100   14.8973 N.pl3   1  UNL1       -0.3140
     23 H          67.9548   95.1536   14.6232 H       1  UNL1        0.1483
     24 O          61.9212   85.4844   10.4102 O.3     1  UNL1       -0.4630
     25 C          62.9373   84.7977    9.5463 C.3     1  UNL1        0.1678
     26 C          63.0931   85.1979    8.1091 C.3     1  UNL1        0.0473
     27 C          63.7975   83.7109   10.1197 C.3     1  UNL1        0.0473
@<TRIPOS>BOND
     1    21    22    1
     2    22    11    1
     3    11    12   ar
     4    12    13   ar
     5    13    14   ar
     6    14    15   ar
     7    15     1    1
     8     1     2   ar
     9     2     3   ar
    10     3     4   ar
    11     4     5   ar
    12     5    24    1
    13    24    25    1
    14    25    26    1
    15    25    27    1
    16     5     6   ar
    17     6     7   ar
    18     7     8   ar
    19     8     9   ar
    20     9    10   ar
    21    15    16   ar
    22    16    17    1
    23    16    18   ar
    24    18    19   ar
    25    19    20   ar
    26    20    11   ar
    27    20    14   ar
    28    10     1   ar
    29     9     4   ar
    30    22    23    1
@<TRIPOS>MOLECULE
*****
 27 30 0 0 0
SMALL
GASTEIGER

@<TRIPOS>ATOM
      1 C          63.5454   89.5885   12.1419 C.ar    1  UNL1        0.0028
      2 C          63.9156   89.7698   13.5841 C.ar    1  UNL1        0.0002
      3 C          64.6765   90.9883   14.0156 C.ar    1  UNL1        0.0047
      4 C          65.0671   92.0256   13.0049 C.ar    1  UNL1        0.0562
      5 C          65.8280   93.2442   13.4365 C.ar    1  UNL1        0.2436
      6 N          66.2186   94.2814   12.4258 N.ar    1  UNL1       -0.1102
      7 N          65.8483   94.1001   10.9835 N.ar    1  UNL1       -0.1435
      8 C          65.0875   92.8815   10.5520 C.ar    1  UNL1        0.1224
      9 C          64.6969   91.8443   11.5627 C.ar    1  UNL1        0.0255
     10 C          63.9360   90.6258   11.1312 C.ar    1  UNL1        0.0018
     11 C          62.7743   84.6675   12.7514 C.ar    1  UNL1        0.1705
     12 N          63.8316   85.1687   13.6898 N.ar    1  UNL1       -0.0621
     13 O          64.0053   86.6391   13.4496 O.2     1  UNL1       -0.3522
     14 C          63.0552   87.0466   12.3628 C.ar    1  UNL1        0.1777
     15 C          62.7845   88.3699   11.7103 C.ar    1  UNL1        0.0333
     16 C          61.7531   88.4746   10.6264 C.ar    1  UNL1       -0.0188
     17 C          61.4824   89.7979    9.9739 C.3     1  UNL1        0.0311
     18 C          60.9922   87.2561   10.1948 C.ar    1  UNL1       -0.0040
     19 C          61.2628   85.9328   10.8472 C.ar    1  UNL1        0.0057
     20 C          62.2944   85.8281   11.9313 C.ar    1  UNL1        0.0717
     21 C          62.4022   82.3327   13.8286 C.3     1  UNL1        0.1097
     22 N          62.2830   83.2538   12.6508 N.pl3   1  UNL1       -0.3140
     23 H          61.8822   82.9305   11.8116 H       1  UNL1        0.1483
     24 O          66.1982   93.4254   14.8787 O.3     1  UNL1       -0.4630
     25 C          67.5581   93.0156   15.3612 C.3     1  UNL1        0.1678
     26 C          67.9634   91.5719   15.3244 C.3     1  UNL1        0.0473
     27 C          68.5127   94.0496   15.8805 C.3     1  UNL1        0.0473
@<TRIPOS>BOND
     1    21    22    1
     2    22    11    1
     3    11    12   ar
     4    12    13   ar
     5    13    14   ar
     6    14    15   ar
     7    15     1    1
     8     1     2   ar
     9     2     3   ar
    10     3     4   ar
    11     4     5   ar
    12     5    24    1
    13    24    25    1
    14    25    26    1
    15    25    27    1
    16     5     6   ar
    17     6     7   ar
    18     7     8   ar
    19     8     9   ar
    20     9    10   ar
    21    15    16   ar
    22    16    17    1
    23    16    18   ar
    24    18    19   ar
    25    19    20   ar
    26    20    11   ar
    27    20    14   ar
    28    10     1   ar
    29     9     4   ar
    30    22    23    1
@<TRIPOS>MOLECULE
*****
 27 30 0 0 0
SMALL
GASTEIGER

@<TRIPOS>ATOM
      1 C          63.4223   89.7256   11.6718 C.ar    1  UNL1        0.0028
      2 C          63.6280   90.6663   10.5217 C.ar    1  UNL1        0.0002
      3 C          64.3881   91.9434   10.7241 C.ar    1  UNL1        0.0047
      4 C          64.9426   92.2799   12.0766 C.ar    1  UNL1        0.0562
      5 C          65.7028   93.5571   12.2790 C.ar    1  UNL1        0.2436
      6 N          66.2573   93.8936   13.6315 N.ar    1  UNL1       -0.1102
      7 N          66.0516   92.9529   14.7817 N.ar    1  UNL1       -0.1435
      8 C          65.2914   91.6757   14.5793 C.ar    1  UNL1        0.1224
      9 C          64.7369   91.3392   13.2267 C.ar    1  UNL1        0.0255
     10 C          63.9768   90.0621   13.0243 C.ar    1  UNL1        0.0018
     11 C          62.7515   84.9542   13.0739 C.ar    1  UNL1        0.1705
     12 N          63.8401   85.6045   13.8750 N.ar    1  UNL1       -0.0621
     13 O          63.9814   87.0207   13.4013 O.2     1  UNL1       -0.3522
     14 C          62.9800   87.2456   12.3074 C.ar    1  UNL1        0.1777
     15 C          62.6621   88.4484   11.4694 C.ar    1  UNL1        0.0333
     16 C          61.5841   88.3740   10.4291 C.ar    1  UNL1       -0.0188
     17 C          61.2662   89.5768    9.5911 C.3     1  UNL1        0.0311
     18 C          60.8239   87.0968   10.2267 C.ar    1  UNL1       -0.0040
     19 C          61.1418   85.8940   11.0647 C.ar    1  UNL1        0.0057
     20 C          62.2199   85.9684   12.1050 C.ar    1  UNL1        0.0717
     21 C          62.3686   82.8470   14.5447 C.3     1  UNL1        0.1097
     22 N          62.2776   83.5382   13.2165 N.pl3   1  UNL1       -0.3140
     23 H          61.9069   83.0624   12.4384 H       1  UNL1        0.1483
     24 O          65.9084   94.4978   11.1289 O.3     1  UNL1       -0.4630
     25 C          67.0075   94.2444   10.1399 C.3     1  UNL1        0.1678
     26 C          67.6505   92.8914   10.0637 C.3     1  UNL1        0.0473
     27 C          67.4634   95.3440    9.2272 C.3     1  UNL1        0.0473
@<TRIPOS>BOND
     1    21    22    1
     2    22    11    1
     3    11    12   ar
     4    12    13   ar
     5    13    14   ar
     6    14    15   ar
     7    15     1    1
     8     1     2   ar
     9     2     3   ar
    10     3     4   ar
    11     4     5   ar
    12     5    24    1
    13    24    25    1
    14    25    26    1
    15    25    27    1
    16     5     6   ar
    17     6     7   ar
    18     7     8   ar
    19     8     9   ar
    20     9    10   ar
    21    15    16   ar
    22    16    17    1
    23    16    18   ar
    24    18    19   ar
    25    19    20   ar
    26    20    11   ar
    27    20    14   ar
    28    10     1   ar
    29     9     4   ar
    30    22    23    1
@<TRIPOS>MOLECULE
*****
 27 30 0 0 0
SMALL
GASTEIGER

@<TRIPOS>ATOM
      1 C          63.7497   89.6449   13.2813 C.ar    1  UNL1        0.0028
      2 C          63.1379   90.2044   12.0313 C.ar    1  UNL1        0.0002
      3 C          62.5473   89.2812   11.0072 C.ar    1  UNL1        0.0047
      4 C          62.5684   87.7985   11.2331 C.ar    1  UNL1        0.0562
      5 C          61.9777   86.8753   10.2090 C.ar    1  UNL1        0.2436
      6 N          61.9988   85.3925   10.4349 N.ar    1  UNL1       -0.1102
      7 N          62.6107   84.8330   11.6850 N.ar    1  UNL1       -0.1435
      8 C          63.2013   85.7562   12.7091 C.ar    1  UNL1        0.1224
      9 C          63.1802   87.2390   12.4831 C.ar    1  UNL1        0.0255
     10 C          63.7709   88.1622   13.5072 C.ar    1  UNL1        0.0018
     11 C          67.1901   93.1510   14.3077 C.ar    1  UNL1        0.1705
     12 N          67.2883   92.6995   12.8807 N.ar    1  UNL1       -0.0621
     13 O          66.2343   91.6573   12.6507 O.2     1  UNL1       -0.3522
     14 C          65.4846   91.4648   13.9356 C.ar    1  UNL1        0.1777
     15 C          64.3404   90.5681   14.3054 C.ar    1  UNL1        0.0333
     16 C          63.7869   90.5946   15.6993 C.ar    1  UNL1       -0.0188
     17 C          62.6427   89.6979   16.0691 C.3     1  UNL1        0.0311
     18 C          64.3776   91.5178   16.7234 C.ar    1  UNL1       -0.0040
     19 C          65.5218   92.4145   16.3536 C.ar    1  UNL1        0.0057
     20 C          66.0753   92.3880   14.9597 C.ar    1  UNL1        0.0717
     21 C          69.0884   93.7675   15.9709 C.3     1  UNL1        0.1097
     22 N          68.0547   94.1843   14.9670 N.pl3   1  UNL1       -0.3140
     23 H          67.9438   95.1360   14.7408 H       1  UNL1        0.1483
     24 O          61.3659   87.4348    8.9590 O.3     1  UNL1       -0.4630
     25 C          60.4568   86.5836    8.1229 C.3     1  UNL1        0.1678
     26 C          61.0281   85.4914    7.2680 C.3     1  UNL1        0.0473
     27 C          58.9764   86.8245    8.1416 C.3     1  UNL1        0.0473
@<TRIPOS>BOND
     1    21    22    1
     2    22    11    1
     3    11    12   ar
     4    12    13   ar
     5    13    14   ar
     6    14    15   ar
     7    15     1    1
     8     1     2   ar
     9     2     3   ar
    10     3     4   ar
    11     4     5   ar
    12     5    24    1
    13    24    25    1
    14    25    26    1
    15    25    27    1
    16     5     6   ar
    17     6     7   ar
    18     7     8   ar
    19     8     9   ar
    20     9    10   ar
    21    15    16   ar
    22    16    17    1
    23    16    18   ar
    24    18    19   ar
    25    19    20   ar
    26    20    11   ar
    27    20    14   ar
    28    10     1   ar
    29     9     4   ar
    30    22    23    1
@<TRIPOS>MOLECULE
*****
 27 30 0 0 0
SMALL
GASTEIGER

@<TRIPOS>ATOM
      1 C          62.5098   89.4476   10.8640 C.ar    1  UNL1        0.0028
      2 C          62.8754   88.9516   12.2315 C.ar    1  UNL1        0.0002
      3 C          63.8756   89.7028   13.0592 C.ar    1  UNL1        0.0047
      4 C          64.5103   90.9500   12.5193 C.ar    1  UNL1        0.0562
      5 C          65.5107   91.7012   13.3471 C.ar    1  UNL1        0.2436
      6 N          66.1454   92.9485   12.8073 N.ar    1  UNL1       -0.1102
      7 N          65.7798   93.4446   11.4396 N.ar    1  UNL1       -0.1435
      8 C          64.7795   92.6934   10.6119 C.ar    1  UNL1        0.1224
      9 C          64.1448   91.4461   11.1518 C.ar    1  UNL1        0.0255
     10 C          63.1446   90.6949   10.3241 C.ar    1  UNL1        0.0018
     11 C          61.6473   85.5922    7.7697 C.ar    1  UNL1        0.1705
     12 N          63.0863   85.6354    8.1905 N.ar    1  UNL1       -0.0621
     13 O          63.2656   86.8077    9.1090 O.2     1  UNL1       -0.3522
     14 C          61.9374   87.4890    9.2557 C.ar    1  UNL1        0.1777
     15 C          61.5095   88.6964   10.0362 C.ar    1  UNL1        0.0333
     16 C          60.0814   89.1526    9.9889 C.ar    1  UNL1       -0.0188
     17 C          59.6535   90.3601   10.7693 C.3     1  UNL1        0.0311
     18 C          59.0811   88.4014    9.1611 C.ar    1  UNL1       -0.0040
     19 C          59.5090   87.1940    8.3806 C.ar    1  UNL1        0.0057
     20 C          60.9372   86.7378    8.4280 C.ar    1  UNL1        0.0717
     21 C          61.7496   84.1540    5.6084 C.3     1  UNL1        0.1097
     22 N          61.0271   84.5810    6.8517 N.pl3   1  UNL1       -0.3140
     23 H          60.1458   84.1976    7.0651 H       1  UNL1        0.1483
     24 O          65.8762   91.2052   14.7147 O.3     1  UNL1       -0.4630
     25 C          65.9805   92.1692   15.8592 C.3     1  UNL1        0.1678
     26 C          64.7993   92.4017   16.7540 C.3     1  UNL1        0.0473
     27 C          67.2660   92.9008   16.1087 C.3     1  UNL1        0.0473
@<TRIPOS>BOND
     1    21    22    1
     2    22    11    1
     3    11    12   ar
     4    12    13   ar
     5    13    14   ar
     6    14    15   ar
     7    15     1    1
     8     1     2   ar
     9     2     3   ar
    10     3     4   ar
    11     4     5   ar
    12     5    24    1
    13    24    25    1
    14    25    26    1
    15    25    27    1
    16     5     6   ar
    17     6     7   ar
    18     7     8   ar
    19     8     9   ar
    20     9    10   ar
    21    15    16   ar
    22    16    17    1
    23    16    18   ar
    24    18    19   ar
    25    19    20   ar
    26    20    11   ar
    27    20    14   ar
    28    10     1   ar
    29     9     4   ar
    30    22    23    1
@<TRIPOS>MOLECULE
*****
 27 30 0 0 0
SMALL
GASTEIGER

@<TRIPOS>ATOM
      1 C          63.8409   90.5351   12.2818 C.ar    1  UNL1        0.0028
      2 C          63.9585   89.1825   12.9193 C.ar    1  UNL1        0.0002
      3 C          63.0748   88.0593   12.4637 C.ar    1  UNL1        0.0047
      4 C          62.0736   88.2888   11.3706 C.ar    1  UNL1        0.0562
      5 C          61.1899   87.1656   10.9150 C.ar    1  UNL1        0.2436
      6 N          60.1886   87.3951    9.8219 N.ar    1  UNL1       -0.1102
      7 N          60.0710   88.7479    9.1845 N.ar    1  UNL1       -0.1435
      8 C          60.9547   89.8710    9.6401 C.ar    1  UNL1        0.1224
      9 C          61.9559   89.6415   10.7332 C.ar    1  UNL1        0.0255
     10 C          62.8396   90.7647   11.1888 C.ar    1  UNL1        0.0018
     11 C          66.3458   94.6993   11.0297 C.ar    1  UNL1        0.1705
     12 N          65.6383   94.1170    9.8421 N.ar    1  UNL1       -0.0621
     13 O          64.9161   92.8819   10.2926 O.2     1  UNL1       -0.3522
     14 C          65.1772   92.7009   11.7585 C.ar    1  UNL1        0.1777
     15 C          64.7245   91.6584   12.7375 C.ar    1  UNL1        0.0333
     16 C          65.1555   91.7391   14.1719 C.ar    1  UNL1       -0.0188
     17 C          64.7028   90.6966   15.1508 C.3     1  UNL1        0.0311
     18 C          66.0391   92.8624   14.6275 C.ar    1  UNL1       -0.0040
     19 C          66.4918   93.9049   13.6486 C.ar    1  UNL1        0.0057
     20 C          66.0608   93.8241   12.2141 C.ar    1  UNL1        0.0717
     21 C          67.1801   96.8559    9.8452 C.3     1  UNL1        0.1097
     22 N          67.1901   95.9391   11.0324 N.pl3   1  UNL1       -0.3140
     23 H          67.7507   96.1511   11.8134 H       1  UNL1        0.1483
     24 O          61.3075   85.8129   11.5524 O.3     1  UNL1       -0.4630
     25 C          62.4722   84.9270   11.2226 C.3     1  UNL1        0.1678
     26 C          63.1586   84.1546   12.3099 C.3     1  UNL1        0.0473
     27 C          62.9505   84.8136    9.8054 C.3     1  UNL1        0.0473
@<TRIPOS>BOND
     1    21    22    1
     2    22    11    1
     3    11    12   ar
     4    12    13   ar
     5    13    14   ar
     6    14    15   ar
     7    15     1    1
     8     1     2   ar
     9     2     3   ar
    10     3     4   ar
    11     4     5   ar
    12     5    24    1
    13    24    25    1
    14    25    26    1
    15    25    27    1
    16     5     6   ar
    17     6     7   ar
    18     7     8   ar
    19     8     9   ar
    20     9    10   ar
    21    15    16   ar
    22    16    17    1
    23    16    18   ar
    24    18    19   ar
    25    19    20   ar
    26    20    11   ar
    27    20    14   ar
    28    10     1   ar
    29     9     4   ar
    30    22    23    1
@<TRIPOS>MOLECULE
*****
 27 30 0 0 0
SMALL
GASTEIGER

@<TRIPOS>ATOM
      1 C          63.8882   89.6659   12.6679 C.ar    1  UNL1        0.0028
      2 C          64.3355   89.8081   14.0925 C.ar    1  UNL1        0.0002
      3 C          65.0869   91.0325   14.5240 C.ar    1  UNL1        0.0047
      4 C          65.3910   92.1147   13.5308 C.ar    1  UNL1        0.0562
      5 C          66.1424   93.3391   13.9624 C.ar    1  UNL1        0.2436
      6 N          66.4465   94.4213   12.9692 N.ar    1  UNL1       -0.1102
      7 N          65.9991   94.2791   11.5445 N.ar    1  UNL1       -0.1435
      8 C          65.2477   93.0547   11.1130 C.ar    1  UNL1        0.1224
      9 C          64.9437   91.9725   12.1062 C.ar    1  UNL1        0.0255
     10 C          64.1922   90.7481   11.6747 C.ar    1  UNL1        0.0018
     11 C          60.5152   87.6811    9.5268 C.ar    1  UNL1        0.1705
     12 N          60.7148   89.1421    9.2520 N.ar    1  UNL1       -0.0621
     13 O          61.7310   89.6621   10.2251 O.2     1  UNL1       -0.3522
     14 C          62.1594   88.5225   11.1013 C.ar    1  UNL1        0.1777
     15 C          63.1367   88.4415   12.2363 C.ar    1  UNL1        0.0333
     16 C          63.3626   87.1361   12.9398 C.ar    1  UNL1       -0.0188
     17 C          64.3398   87.0551   14.0749 C.3     1  UNL1        0.0311
     18 C          62.6111   85.9117   12.5083 C.ar    1  UNL1       -0.0040
     19 C          61.6338   85.9927   11.3732 C.ar    1  UNL1        0.0057
     20 C          61.4080   87.2982   10.6697 C.ar    1  UNL1        0.0717
     21 C          59.0202   87.1782    7.4623 C.3     1  UNL1        0.1097
     22 N          59.5859   86.7640    8.7884 N.pl3   1  UNL1       -0.3140
     23 H          59.3472   85.8902    9.1741 H       1  UNL1        0.1483
     24 O          66.5898   93.4813   15.3870 O.3     1  UNL1       -0.4630
     25 C          68.0135   93.1898   15.7587 C.3     1  UNL1        0.1678
     26 C          68.4814   91.7699   15.8800 C.3     1  UNL1        0.0473
     27 C          68.9693   94.3184   16.0093 C.3     1  UNL1        0.0473
@<TRIPOS>BOND
     1    21    22    1
     2    22    11    1
     3    11    12   ar
     4    12    13   ar
     5    13    14   ar
     6    14    15   ar
     7    15     1    1
     8     1     2   ar
     9     2     3   ar
    10     3     4   ar
    11     4     5   ar
    12     5    24    1
    13    24    25    1
    14    25    26    1
    15    25    27    1
    16     5     6   ar
    17     6     7   ar
    18     7     8   ar
    19     8     9   ar
    20     9    10   ar
    21    15    16   ar
    22    16    17    1
    23    16    18   ar
    24    18    19   ar
    25    19    20   ar
    26    20    11   ar
    27    20    14   ar
    28    10     1   ar
    29     9     4   ar
    30    22    23    1
@<TRIPOS>MOLECULE
*****
 27 30 0 0 0
SMALL
GASTEIGER

@<TRIPOS>ATOM
      1 C          63.4474   86.3264   13.3466 C.ar    1  UNL1        0.0028
      2 C          64.2182   86.9706   14.4605 C.ar    1  UNL1        0.0002
      3 C          64.4288   88.4557   14.4657 C.ar    1  UNL1        0.0047
      4 C          63.8686   89.2966   13.3570 C.ar    1  UNL1        0.0562
      5 C          64.0792   90.7818   13.3623 C.ar    1  UNL1        0.2436
      6 N          63.5189   91.6226   12.2537 N.ar    1  UNL1       -0.1102
      7 N          62.7481   90.9783   11.1398 N.ar    1  UNL1       -0.1435
      8 C          62.5375   89.4932   11.1346 C.ar    1  UNL1        0.1224
      9 C          63.0977   88.6523   12.2432 C.ar    1  UNL1        0.0255
     10 C          62.8871   87.1672   12.2380 C.ar    1  UNL1        0.0018
     11 C          63.4667   82.0774   10.6766 C.ar    1  UNL1        0.1705
     12 N          63.8347   83.2539    9.8221 N.ar    1  UNL1       -0.0621
     13 O          63.8075   84.4803   10.6852 O.2     1  UNL1       -0.3522
     14 C          63.4226   84.0618   12.0733 C.ar    1  UNL1        0.1777
     15 C          63.2368   84.8412   13.3414 C.ar    1  UNL1        0.0333
     16 C          62.8403   84.1355   14.6042 C.ar    1  UNL1       -0.0188
     17 C          62.6544   84.9148   15.8723 C.3     1  UNL1        0.0311
     18 C          62.6297   82.6503   14.5989 C.ar    1  UNL1       -0.0040
     19 C          62.8155   81.8709   13.3308 C.ar    1  UNL1        0.0057
     20 C          63.2120   82.5767   12.0680 C.ar    1  UNL1        0.0717
     21 C          62.7809   79.6122   11.1266 C.3     1  UNL1        0.1097
     22 N          63.3703   80.6519   10.2201 N.pl3   1  UNL1       -0.3140
     23 H          63.6938   80.3986    9.3255 H       1  UNL1        0.1483
     24 O          64.8501   91.4260   14.4761 O.3     1  UNL1       -0.4630
     25 C          66.1851   92.0519   14.2002 C.3     1  UNL1        0.1678
     26 C          67.4184   91.5091   14.8590 C.3     1  UNL1        0.0473
     27 C          66.2866   93.2207   13.2655 C.3     1  UNL1        0.0473
@<TRIPOS>BOND
     1    21    22    1
     2    22    11    1
     3    11    12   ar
     4    12    13   ar
     5    13    14   ar
     6    14    15   ar
     7    15     1    1
     8     1     2   ar
     9     2     3   ar
    10     3     4   ar
    11     4     5   ar
    12     5    24    1
    13    24    25    1
    14    25    26    1
    15    25    27    1
    16     5     6   ar
    17     6     7   ar
    18     7     8   ar
    19     8     9   ar
    20     9    10   ar
    21    15    16   ar
    22    16    17    1
    23    16    18   ar
    24    18    19   ar
    25    19    20   ar
    26    20    11   ar
    27    20    14   ar
    28    10     1   ar
    29     9     4   ar
    30    22    23    1
