@<TRIPOS>MOLECULE
*****
 41 44 0 0 0
SMALL
GASTEIGER

@<TRIPOS>ATOM
      1 N          62.8719   89.2280   11.1238 N.am    1  UNL1       -0.2927
      2 C          61.4066   89.2071   10.8040 C.2     1  UNL1        0.2508
      3 O          60.4631   90.1025   11.5511 O.2     1  UNL1       -0.2700
      4 H          63.4912   88.6403   10.6334 H       1  UNL1        0.1502
      5 C          60.8847   88.2909    9.7370 C.ar    1  UNL1        0.1068
      6 C          59.7133   88.7076    8.8978 C.ar    1  UNL1        0.0108
      7 C          59.1915   87.7915    7.8309 C.ar    1  UNL1        0.0210
      8 C          59.8409   86.4587    7.6032 C.ar    1  UNL1        0.1021
      9 N          61.0122   86.0421    8.4425 N.ar    1  UNL1       -0.2097
     10 C          61.5341   86.9582    9.5094 C.ar    1  UNL1        0.2340
     11 O          62.7055   86.5415   10.3486 O.3     1  UNL1       -0.4351
     12 C          62.7035   85.2041   11.0279 C.ar    1  UNL1        0.1576
     13 C          62.1554   85.0695   12.4176 C.ar    1  UNL1        0.0384
     14 C          62.1535   83.7321   13.0968 C.ar    1  UNL1        0.0070
     15 C          62.6997   82.5293   12.3863 C.ar    1  UNL1        0.0725
     16 C          63.2478   82.6639   10.9965 C.ar    1  UNL1        0.0183
     17 C          63.2497   84.0012   10.3173 C.ar    1  UNL1        0.0921
     18 CL         63.7979   84.1358    8.9275 Cl      1  UNL1       -0.0791
     19 C          62.6977   81.1919   13.0655 C.3     1  UNL1        0.4186
     20 F          62.6958   79.8545   13.7448 F       1  UNL1       -0.1659
     21 F          61.2015   81.2415   13.1588 F       1  UNL1       -0.1659
     22 F          64.1940   81.1423   12.9722 F       1  UNL1       -0.1659
     23 C          63.3938   90.1442   12.1907 C.3     1  UNL1        0.1789
     24 C          68.1022   93.8311   15.5800 C.3     1  UNL1        0.0897
     25 N          67.1053   93.2243   14.6377 N.3     1  UNL1       -0.2686
     26 C          66.8288   93.8770   13.3159 C.3     1  UNL1        0.0939
     27 C          65.8318   93.2702   12.3737 C.3     1  UNL1        0.1108
     28 N          65.1113   92.0106   12.7533 N.am    1  UNL1       -0.2753
     29 C          64.1143   91.4038   11.8111 C.2     1  UNL1        0.2462
     30 O          63.8378   92.0566   10.4892 O.2     1  UNL1       -0.2730
     31 C          65.3878   91.3578   14.0752 C.3     1  UNL1        0.1108
     32 C          66.3847   91.9646   15.0174 C.3     1  UNL1        0.0939
     33 C          63.1951   89.8007   13.6373 C.3     1  UNL1        0.1715
     34 O          63.1306   88.3644   14.0651 O.3     1  UNL1       -0.3467
     35 C          64.3018   87.7355   14.7599 C.3     1  UNL1        0.1688
     36 C          64.3042   86.2622   15.0415 C.ar    1  UNL1        0.0104
     37 C          65.2647   85.3625   14.3217 C.ar    1  UNL1        0.0188
     38 C          65.2671   83.8892   14.6033 C.ar    1  UNL1        0.0986
     39 N          64.3090   83.3155   15.6047 N.ar    1  UNL1       -0.2423
     40 C          63.3485   84.2151   16.3245 C.ar    1  UNL1        0.0986
     41 C          63.3460   85.6884   16.0429 C.ar    1  UNL1        0.0188
@<TRIPOS>BOND
     1    24    25    1
     2    25    26    1
     3    26    27    1
     4    27    28    1
     5    28    29   am
     6    29    30    2
     7    29    23    1
     8    23    33    1
     9    33    34    1
    10    34    35    1
    11    35    36    1
    12    36    37   ar
    13    37    38   ar
    14    38    39   ar
    15    39    40   ar
    16    40    41   ar
    17    23     1    1
    18     1     2   am
    19     2     3    2
    20     2     5    1
    21     5     6   ar
    22     6     7   ar
    23     7     8   ar
    24     8     9   ar
    25     9    10   ar
    26    10    11    1
    27    11    12    1
    28    12    13   ar
    29    13    14   ar
    30    14    15   ar
    31    15    19    1
    32    19    20    1
    33    19    21    1
    34    19    22    1
    35    15    16   ar
    36    16    17   ar
    37    17    18    1
    38    28    31    1
    39    31    32    1
    40    32    25    1
    41    41    36   ar
    42    10     5   ar
    43    17    12   ar
    44     1     4    1
@<TRIPOS>MOLECULE
*****
 41 44 0 0 0
SMALL
GASTEIGER

@<TRIPOS>ATOM
      1 N          65.2478   90.2396   14.4124 N.am    1  UNL1       -0.2927
      2 C          65.6249   91.4484   15.2164 C.2     1  UNL1        0.2508
      3 O          64.5979   92.1319   16.0697 O.2     1  UNL1       -0.2700
      4 H          65.9219   89.7911   13.8523 H       1  UNL1        0.1502
      5 C          67.0290   91.9739   15.1672 C.ar    1  UNL1        0.1068
      6 C          67.7374   92.3411   16.4374 C.ar    1  UNL1        0.0108
      7 C          69.1414   92.8665   16.3882 C.ar    1  UNL1        0.0210
      8 C          69.8372   93.0247   15.0688 C.ar    1  UNL1        0.1021
      9 N          69.1289   92.6574   13.7986 N.ar    1  UNL1       -0.2097
     10 C          67.7248   92.1320   13.8478 C.ar    1  UNL1        0.2340
     11 O          67.0165   91.7648   12.5776 O.3     1  UNL1       -0.4351
     12 C          66.8623   92.7802   11.4844 C.ar    1  UNL1        0.1576
     13 C          65.8587   93.8862   11.6241 C.ar    1  UNL1        0.0384
     14 C          65.7045   94.9016   10.5308 C.ar    1  UNL1        0.0070
     15 C          66.5538   94.8110    9.2978 C.ar    1  UNL1        0.0725
     16 C          67.5574   93.7049    9.1580 C.ar    1  UNL1        0.0183
     17 C          67.7116   92.6896   10.2513 C.ar    1  UNL1        0.0921
     18 CL         68.7152   91.5835   10.1115 Cl      1  UNL1       -0.0791
     19 C          66.3996   95.8263    8.2046 C.3     1  UNL1        0.4186
     20 F          66.2453   96.8418    7.1113 F       1  UNL1       -0.1659
     21 F          67.3082   95.0185    7.3261 F       1  UNL1       -0.1659
     22 F          65.4909   96.6341    9.0831 F       1  UNL1       -0.1659
     23 C          63.8436   89.7142   14.4616 C.3     1  UNL1        0.1789
     24 C          63.9127   82.8527   14.8674 C.3     1  UNL1        0.0897
     25 N          63.7911   84.3375   15.0426 N.3     1  UNL1       -0.2686
     26 C          63.2523   84.8997   16.3246 C.3     1  UNL1        0.0939
     27 C          63.1307   86.3845   16.4998 C.3     1  UNL1        0.1108
     28 N          63.5480   87.3070   15.3931 N.am    1  UNL1       -0.2753
     29 C          63.4264   88.7917   15.5683 C.2     1  UNL1        0.2462
     30 O          62.8876   89.3540   16.8503 O.2     1  UNL1       -0.2730
     31 C          64.0868   86.7447   14.1111 C.3     1  UNL1        0.1108
     32 C          64.2083   85.2599   13.9359 C.3     1  UNL1        0.0939
     33 C          62.8568   90.1113   13.4041 C.3     1  UNL1        0.1715
     34 O          62.3595   89.0925   12.4218 O.3     1  UNL1       -0.3467
     35 C          62.4708   89.3540   10.9489 C.3     1  UNL1        0.1688
     36 C          61.7283   88.4878    9.9752 C.ar    1  UNL1        0.0104
     37 C          60.4932   89.0066    9.3002 C.ar    1  UNL1        0.0188
     38 C          59.7507   88.1403    8.3264 C.ar    1  UNL1        0.0986
     39 N          60.2431   86.7553    8.0276 N.ar    1  UNL1       -0.2423
     40 C          61.4781   86.2366    8.7026 C.ar    1  UNL1        0.0986
     41 C          62.2207   87.1028    9.6764 C.ar    1  UNL1        0.0188
@<TRIPOS>BOND
     1    24    25    1
     2    25    26    1
     3    26    27    1
     4    27    28    1
     5    28    29   am
     6    29    30    2
     7    29    23    1
     8    23    33    1
     9    33    34    1
    10    34    35    1
    11    35    36    1
    12    36    37   ar
    13    37    38   ar
    14    38    39   ar
    15    39    40   ar
    16    40    41   ar
    17    23     1    1
    18     1     2   am
    19     2     3    2
    20     2     5    1
    21     5     6   ar
    22     6     7   ar
    23     7     8   ar
    24     8     9   ar
    25     9    10   ar
    26    10    11    1
    27    11    12    1
    28    12    13   ar
    29    13    14   ar
    30    14    15   ar
    31    15    19    1
    32    19    20    1
    33    19    21    1
    34    19    22    1
    35    15    16   ar
    36    16    17   ar
    37    17    18    1
    38    28    31    1
    39    31    32    1
    40    32    25    1
    41    41    36   ar
    42    10     5   ar
    43    17    12   ar
    44     1     4    1
@<TRIPOS>MOLECULE
*****
 41 44 0 0 0
SMALL
GASTEIGER

@<TRIPOS>ATOM
      1 N          63.0703   89.6025   13.8522 N.am    1  UNL1       -0.2927
      2 C          64.0532   88.8705   14.7171 C.2     1  UNL1        0.2508
      3 O          65.5169   89.1840   14.6198 O.2     1  UNL1       -0.2700
      4 H          62.1097   89.3967   13.9161 H       1  UNL1        0.1502
      5 C          63.5725   87.8250   15.6794 C.ar    1  UNL1        0.1068
      6 C          63.0566   88.2283   17.0289 C.ar    1  UNL1        0.0108
      7 C          62.5759   87.1829   17.9912 C.ar    1  UNL1        0.0210
      8 C          62.6110   85.7342   17.6039 C.ar    1  UNL1        0.1021
      9 N          63.1269   85.3310   16.2544 N.ar    1  UNL1       -0.2097
     10 C          63.6076   86.3764   15.2921 C.ar    1  UNL1        0.2340
     11 O          64.1235   85.9731   13.9426 O.3     1  UNL1       -0.4351
     12 C          63.8223   84.6067   13.4022 C.ar    1  UNL1        0.1576
     13 C          64.6011   83.4199   13.8870 C.ar    1  UNL1        0.0384
     14 C          64.2999   82.0534   13.3465 C.ar    1  UNL1        0.0070
     15 C          63.2198   81.8737   12.3212 C.ar    1  UNL1        0.0725
     16 C          62.4410   83.0605   11.8364 C.ar    1  UNL1        0.0183
     17 C          62.7422   84.4269   12.3769 C.ar    1  UNL1        0.0921
     18 CL         61.9634   85.6137   11.8921 Cl      1  UNL1       -0.0791
     19 C          62.9186   80.5073   11.7808 C.3     1  UNL1        0.4186
     20 F          62.6174   79.1408   11.2403 F       1  UNL1       -0.1659
     21 F          62.6866   80.0068   13.1756 F       1  UNL1       -0.1659
     22 F          63.1506   81.0079   10.3860 F       1  UNL1       -0.1659
     23 C          63.5511   90.6480   12.8899 C.3     1  UNL1        0.1789
     24 C          67.4319   95.1224    9.4015 C.3     1  UNL1        0.0897
     25 N          66.6858   94.2797   10.3931 N.3     1  UNL1       -0.2686
     26 C          66.8359   94.5408   11.8625 C.3     1  UNL1        0.0939
     27 C          66.0898   93.6982   12.8541 C.3     1  UNL1        0.1108
     28 N          65.1935   92.5944   12.3762 N.am    1  UNL1       -0.2753
     29 C          64.4474   91.7518   13.3678 C.2     1  UNL1        0.2462
     30 O          64.5975   92.0129   14.8372 O.2     1  UNL1       -0.2730
     31 C          65.0434   92.3333   10.9068 C.3     1  UNL1        0.1108
     32 C          65.7895   93.1759    9.9152 C.3     1  UNL1        0.0939
     33 C          63.1356   90.5896   11.4498 C.3     1  UNL1        0.1715
     34 O          62.0322   89.6667   11.0244 O.3     1  UNL1       -0.3467
     35 C          62.3314   88.5056   10.1231 C.3     1  UNL1        0.1688
     36 C          61.2685   87.9726    9.2087 C.ar    1  UNL1        0.0104
     37 C          60.1753   88.8771    8.7219 C.ar    1  UNL1        0.0188
     38 C          59.1124   88.3441    7.8076 C.ar    1  UNL1        0.0986
     39 N          59.1426   86.9067    7.3799 N.ar    1  UNL1       -0.2423
     40 C          60.2357   86.0022    7.8667 C.ar    1  UNL1        0.0986
     41 C          61.2987   86.5352    8.7811 C.ar    1  UNL1        0.0188
@<TRIPOS>BOND
     1    24    25    1
     2    25    26    1
     3    26    27    1
     4    27    28    1
     5    28    29   am
     6    29    30    2
     7    29    23    1
     8    23    33    1
     9    33    34    1
    10    34    35    1
    11    35    36    1
    12    36    37   ar
    13    37    38   ar
    14    38    39   ar
    15    39    40   ar
    16    40    41   ar
    17    23     1    1
    18     1     2   am
    19     2     3    2
    20     2     5    1
    21     5     6   ar
    22     6     7   ar
    23     7     8   ar
    24     8     9   ar
    25     9    10   ar
    26    10    11    1
    27    11    12    1
    28    12    13   ar
    29    13    14   ar
    30    14    15   ar
    31    15    19    1
    32    19    20    1
    33    19    21    1
    34    19    22    1
    35    15    16   ar
    36    16    17   ar
    37    17    18    1
    38    28    31    1
    39    31    32    1
    40    32    25    1
    41    41    36   ar
    42    10     5   ar
    43    17    12   ar
    44     1     4    1
@<TRIPOS>MOLECULE
*****
 41 44 0 0 0
SMALL
GASTEIGER

@<TRIPOS>ATOM
      1 N          63.2750   90.2203   13.7436 N.am    1  UNL1       -0.2927
      2 C          63.4195   88.7274   13.7602 C.2     1  UNL1        0.2508
      3 O          63.6074   87.9777   12.4746 O.2     1  UNL1       -0.2700
      4 H          63.1517   90.7123   14.5874 H       1  UNL1        0.1502
      5 C          63.3762   87.9841   15.0624 C.ar    1  UNL1        0.1068
      6 C          62.8300   88.6521   16.2894 C.ar    1  UNL1        0.0108
      7 C          62.7866   87.9088   17.5916 C.ar    1  UNL1        0.0210
      8 C          63.2894   86.4976   17.6667 C.ar    1  UNL1        0.1021
      9 N          63.8356   85.8297   16.4397 N.ar    1  UNL1       -0.2097
     10 C          63.8789   86.5729   15.1376 C.ar    1  UNL1        0.2340
     11 O          64.4251   85.9049   13.9106 O.3     1  UNL1       -0.4351
     12 C          63.9983   84.5095   13.5634 C.ar    1  UNL1        0.1576
     13 C          64.5960   83.3402   14.2883 C.ar    1  UNL1        0.0384
     14 C          64.1691   81.9447   13.9410 C.ar    1  UNL1        0.0070
     15 C          63.1447   81.7186   12.8689 C.ar    1  UNL1        0.0725
     16 C          62.5470   82.8879   12.1441 C.ar    1  UNL1        0.0183
     17 C          62.9738   84.2834   12.4912 C.ar    1  UNL1        0.0921
     18 CL         62.3762   85.4527   11.7664 Cl      1  UNL1       -0.0791
     19 C          62.7179   80.3232   12.5218 C.3     1  UNL1        0.4186
     20 F          62.2911   78.9277   12.1745 F       1  UNL1       -0.1659
     21 F          62.6165   79.9911   13.9810 F       1  UNL1       -0.1659
     22 F          62.8193   80.6552   11.0625 F       1  UNL1       -0.1659
     23 C          63.3184   90.9636   12.4414 C.3     1  UNL1        0.1789
     24 C          68.7742   92.8857   16.1548 C.3     1  UNL1        0.0897
     25 N          67.7182   92.5961   15.1297 N.3     1  UNL1       -0.2686
     26 C          67.8939   93.0698   13.7174 C.3     1  UNL1        0.0939
     27 C          66.8379   92.7801   12.6922 C.3     1  UNL1        0.1108
     28 N          65.6061   92.0167   13.0794 N.am    1  UNL1       -0.2753
     29 C          64.5501   91.7270   12.0542 C.2     1  UNL1        0.2462
     30 O          64.7258   92.2008   10.6419 O.2     1  UNL1       -0.2730
     31 C          65.4304   91.5430   14.4917 C.3     1  UNL1        0.1108
     32 C          66.4864   91.8326   15.5168 C.3     1  UNL1        0.0939
     33 C          62.1299   90.9435   11.5264 C.3     1  UNL1        0.1715
     34 O          62.0016   89.8693   10.4873 O.3     1  UNL1       -0.3467
     35 C          60.6570   89.5434    9.9076 C.3     1  UNL1        0.1688
     36 C          60.4721   88.2945    9.0978 C.ar    1  UNL1        0.0104
     37 C          61.5473   87.2487    9.0760 C.ar    1  UNL1        0.0188
     38 C          61.3624   85.9997    8.2662 C.ar    1  UNL1        0.0986
     39 N          60.1024   85.7964    7.4782 N.ar    1  UNL1       -0.2423
     40 C          59.0272   86.8421    7.5000 C.ar    1  UNL1        0.0986
     41 C          59.2121   88.0912    8.3098 C.ar    1  UNL1        0.0188
@<TRIPOS>BOND
     1    24    25    1
     2    25    26    1
     3    26    27    1
     4    27    28    1
     5    28    29   am
     6    29    30    2
     7    29    23    1
     8    23    33    1
     9    33    34    1
    10    34    35    1
    11    35    36    1
    12    36    37   ar
    13    37    38   ar
    14    38    39   ar
    15    39    40   ar
    16    40    41   ar
    17    23     1    1
    18     1     2   am
    19     2     3    2
    20     2     5    1
    21     5     6   ar
    22     6     7   ar
    23     7     8   ar
    24     8     9   ar
    25     9    10   ar
    26    10    11    1
    27    11    12    1
    28    12    13   ar
    29    13    14   ar
    30    14    15   ar
    31    15    19    1
    32    19    20    1
    33    19    21    1
    34    19    22    1
    35    15    16   ar
    36    16    17   ar
    37    17    18    1
    38    28    31    1
    39    31    32    1
    40    32    25    1
    41    41    36   ar
    42    10     5   ar
    43    17    12   ar
    44     1     4    1
@<TRIPOS>MOLECULE
*****
 41 44 0 0 0
SMALL
GASTEIGER

@<TRIPOS>ATOM
      1 N          61.8546   85.1260   11.7276 N.am    1  UNL1       -0.2927
      2 C          62.1153   85.3331   10.2650 C.2     1  UNL1        0.2508
      3 O          63.3887   84.8310    9.6517 O.2     1  UNL1       -0.2700
      4 H          61.0187   85.4556   12.1301 H       1  UNL1        0.1502
      5 C          61.1025   86.0424    9.4157 C.ar    1  UNL1        0.1068
      6 C          60.8243   85.5625    8.0221 C.ar    1  UNL1        0.0108
      7 C          59.8116   86.2717    7.1728 C.ar    1  UNL1        0.0210
      8 C          59.0771   87.4609    7.7171 C.ar    1  UNL1        0.1021
      9 N          59.3552   87.9408    9.1108 N.ar    1  UNL1       -0.2097
     10 C          60.3680   87.2316    9.9601 C.ar    1  UNL1        0.2340
     11 O          60.6461   87.7115   11.3537 O.3     1  UNL1       -0.4351
     12 C          61.6708   88.7816   11.5879 C.ar    1  UNL1        0.1576
     13 C          62.9484   88.4533   12.3021 C.ar    1  UNL1        0.0384
     14 C          63.9730   89.5235   12.5363 C.ar    1  UNL1        0.0070
     15 C          63.7201   90.9219   12.0563 C.ar    1  UNL1        0.0725
     16 C          62.4426   91.2502   11.3421 C.ar    1  UNL1        0.0183
     17 C          61.4179   90.1801   11.1079 C.ar    1  UNL1        0.0921
     18 CL         60.1403   90.5084   10.3937 Cl      1  UNL1       -0.0791
     19 C          64.7448   91.9920   12.2905 C.3     1  UNL1        0.4186
     20 F          65.7695   93.0622   12.5246 F       1  UNL1       -0.1659
     21 F          64.8590   91.5687   13.7249 F       1  UNL1       -0.1659
     22 F          64.6305   92.4154   10.8560 F       1  UNL1       -0.1659
     23 C          62.8673   84.4168   12.5769 C.3     1  UNL1        0.1789
     24 C          62.8635   77.9162   10.3424 C.3     1  UNL1        0.0897
     25 N          62.7727   79.2221   11.0749 N.3     1  UNL1       -0.2686
     26 C          62.3149   79.2506   12.5030 C.3     1  UNL1        0.0939
     27 C          62.2241   80.5564   13.2355 C.3     1  UNL1        0.1108
     28 N          62.5911   81.8337   12.5400 N.am    1  UNL1       -0.2753
     29 C          62.5003   83.1395   13.2725 C.2     1  UNL1        0.2462
     30 O          62.0426   83.1681   14.7006 O.2     1  UNL1       -0.2730
     31 C          63.0489   81.8051   11.1118 C.3     1  UNL1        0.1108
     32 C          63.1397   80.4993   10.3793 C.3     1  UNL1        0.0939
     33 C          64.2471   84.9848   12.7306 C.3     1  UNL1        0.1715
     34 O          65.1019   84.5745   13.8930 O.3     1  UNL1       -0.3467
     35 C          65.4919   85.5850   14.9307 C.3     1  UNL1        0.1688
     36 C          64.4326   86.3374   15.6802 C.ar    1  UNL1        0.0104
     37 C          64.2827   87.8170   15.4840 C.ar    1  UNL1        0.0188
     38 C          63.2235   88.5695   16.2336 C.ar    1  UNL1        0.0986
     39 N          62.3141   87.8424   17.1793 N.ar    1  UNL1       -0.2423
     40 C          62.4640   86.3629   17.3755 C.ar    1  UNL1        0.0986
     41 C          63.5233   85.6104   16.6259 C.ar    1  UNL1        0.0188
@<TRIPOS>BOND
     1    24    25    1
     2    25    26    1
     3    26    27    1
     4    27    28    1
     5    28    29   am
     6    29    30    2
     7    29    23    1
     8    23    33    1
     9    33    34    1
    10    34    35    1
    11    35    36    1
    12    36    37   ar
    13    37    38   ar
    14    38    39   ar
    15    39    40   ar
    16    40    41   ar
    17    23     1    1
    18     1     2   am
    19     2     3    2
    20     2     5    1
    21     5     6   ar
    22     6     7   ar
    23     7     8   ar
    24     8     9   ar
    25     9    10   ar
    26    10    11    1
    27    11    12    1
    28    12    13   ar
    29    13    14   ar
    30    14    15   ar
    31    15    19    1
    32    19    20    1
    33    19    21    1
    34    19    22    1
    35    15    16   ar
    36    16    17   ar
    37    17    18    1
    38    28    31    1
    39    31    32    1
    40    32    25    1
    41    41    36   ar
    42    10     5   ar
    43    17    12   ar
    44     1     4    1
@<TRIPOS>MOLECULE
*****
 41 44 0 0 0
SMALL
GASTEIGER

@<TRIPOS>ATOM
      1 N          64.2707   88.1260   14.3737 N.am    1  UNL1       -0.2927
      2 C          63.7896   89.5170   14.0844 C.2     1  UNL1        0.2508
      3 O          62.6224   89.7312   13.1670 O.2     1  UNL1       -0.2700
      4 H          65.0368   87.9854   14.9759 H       1  UNL1        0.1502
      5 C          64.4757   90.6937   14.7126 C.ar    1  UNL1        0.1068
      6 C          64.2645   90.9968   16.1664 C.ar    1  UNL1        0.0108
      7 C          64.9506   92.1735   16.7946 C.ar    1  UNL1        0.0210
      8 C          65.8478   93.0471   15.9690 C.ar    1  UNL1        0.1021
      9 N          66.0590   92.7441   14.5152 N.ar    1  UNL1       -0.2097
     10 C          65.3729   91.5674   13.8870 C.ar    1  UNL1        0.2340
     11 O          65.5841   91.2643   12.4332 O.3     1  UNL1       -0.4351
     12 C          66.0317   92.3486   11.4984 C.ar    1  UNL1        0.1576
     13 C          65.0523   93.3802   11.0225 C.ar    1  UNL1        0.0384
     14 C          65.4999   94.4645   10.0876 C.ar    1  UNL1        0.0070
     15 C          66.9270   94.5172    9.6287 C.ar    1  UNL1        0.0725
     16 C          67.9065   93.4856   10.1046 C.ar    1  UNL1        0.0183
     17 C          67.4589   92.4014   11.0394 C.ar    1  UNL1        0.0921
     18 CL         68.4383   91.3698   11.5153 Cl      1  UNL1       -0.0791
     19 C          67.3746   95.6015    8.6939 C.3     1  UNL1        0.4186
     20 F          67.8223   96.6859    7.7590 F       1  UNL1       -0.1659
     21 F          67.4357   94.6085    7.5713 F       1  UNL1       -0.1659
     22 F          67.3136   96.5945    9.8164 F       1  UNL1       -0.1659
     23 C          63.5846   86.9492   13.7455 C.3     1  UNL1        0.1789
     24 C          62.8820   80.3401   11.9916 C.3     1  UNL1        0.0897
     25 N          62.9752   81.6909   12.6372 N.3     1  UNL1       -0.2686
     26 C          62.7389   81.8355   14.1113 C.3     1  UNL1        0.0939
     27 C          62.8321   83.1862   14.7569 C.3     1  UNL1        0.1108
     28 N          63.1617   84.3924   13.9284 N.am    1  UNL1       -0.2753
     29 C          63.2550   85.7431   14.5740 C.2     1  UNL1        0.2462
     30 O          63.0186   85.8877   16.0482 O.2     1  UNL1       -0.2730
     31 C          63.3981   84.2478   12.4543 C.3     1  UNL1        0.1108
     32 C          63.3049   82.8970   11.8086 C.3     1  UNL1        0.0939
     33 C          63.2282   86.9787   12.2887 C.3     1  UNL1        0.1715
     34 O          61.7922   86.8828   11.8659 O.3     1  UNL1       -0.3467
     35 C          61.4355   86.2255   10.5656 C.3     1  UNL1        0.1688
     36 C          60.7161   87.0038    9.5042 C.ar    1  UNL1        0.0104
     37 C          60.7451   88.5035    9.5244 C.ar    1  UNL1        0.0188
     38 C          60.0257   89.2818    8.4630 C.ar    1  UNL1        0.0986
     39 N          59.2773   88.5606    7.3814 N.ar    1  UNL1       -0.2423
     40 C          59.2483   87.0611    7.3613 C.ar    1  UNL1        0.0986
     41 C          59.9678   86.2826    8.4227 C.ar    1  UNL1        0.0188
@<TRIPOS>BOND
     1    24    25    1
     2    25    26    1
     3    26    27    1
     4    27    28    1
     5    28    29   am
     6    29    30    2
     7    29    23    1
     8    23    33    1
     9    33    34    1
    10    34    35    1
    11    35    36    1
    12    36    37   ar
    13    37    38   ar
    14    38    39   ar
    15    39    40   ar
    16    40    41   ar
    17    23     1    1
    18     1     2   am
    19     2     3    2
    20     2     5    1
    21     5     6   ar
    22     6     7   ar
    23     7     8   ar
    24     8     9   ar
    25     9    10   ar
    26    10    11    1
    27    11    12    1
    28    12    13   ar
    29    13    14   ar
    30    14    15   ar
    31    15    19    1
    32    19    20    1
    33    19    21    1
    34    19    22    1
    35    15    16   ar
    36    16    17   ar
    37    17    18    1
    38    28    31    1
    39    31    32    1
    40    32    25    1
    41    41    36   ar
    42    10     5   ar
    43    17    12   ar
    44     1     4    1
@<TRIPOS>MOLECULE
*****
 41 44 0 0 0
SMALL
GASTEIGER

@<TRIPOS>ATOM
      1 N          61.9858   85.3163   12.3420 N.am    1  UNL1       -0.2927
      2 C          62.9633   84.2387   11.9770 C.2     1  UNL1        0.2508
      3 O          63.9475   84.4632   10.8675 O.2     1  UNL1       -0.2700
      4 H          61.3398   85.1689   13.0702 H       1  UNL1        0.1502
      5 C          62.9567   82.9365   12.7216 C.ar    1  UNL1        0.1068
      6 C          61.9495   81.8800   12.3760 C.ar    1  UNL1        0.0108
      7 C          61.9429   80.5779   13.1205 C.ar    1  UNL1        0.0210
      8 C          62.9434   80.3323   14.2107 C.ar    1  UNL1        0.1021
      9 N          63.9506   81.3887   14.5564 N.ar    1  UNL1       -0.2097
     10 C          63.9572   82.6909   13.8118 C.ar    1  UNL1        0.2340
     11 O          64.9644   83.7473   14.1575 O.3     1  UNL1       -0.4351
     12 C          64.5148   85.0397   14.7719 C.ar    1  UNL1        0.1576
     13 C          65.1583   86.3303   14.3591 C.ar    1  UNL1        0.0384
     14 C          64.7086   87.6227   14.9736 C.ar    1  UNL1        0.0070
     15 C          63.6157   87.6245   16.0009 C.ar    1  UNL1        0.0725
     16 C          62.9722   86.3340   16.4137 C.ar    1  UNL1        0.0183
     17 C          63.4218   85.0416   15.7993 C.ar    1  UNL1        0.0921
     18 CL         62.7784   83.7510   16.2121 Cl      1  UNL1       -0.0791
     19 C          63.1661   88.9169   16.6154 C.3     1  UNL1        0.4186
     20 F          62.7166   90.2094   17.2298 F       1  UNL1       -0.1659
     21 F          63.1439   88.2666   17.9669 F       1  UNL1       -0.1659
     22 F          63.1883   89.5672   15.2639 F       1  UNL1       -0.1659
     23 C          61.9924   86.6185   11.5973 C.3     1  UNL1        0.1789
     24 C          61.8587   84.3105    5.1239 C.3     1  UNL1        0.0897
     25 N          61.6459   84.9465    6.4656 N.3     1  UNL1       -0.2686
     26 C          60.4485   85.8188    6.7008 C.3     1  UNL1        0.0939
     27 C          60.2358   86.4548    8.0425 C.3     1  UNL1        0.1108
     28 N          61.2204   86.2186    9.1491 N.am    1  UNL1       -0.2753
     29 C          61.0077   86.8546   10.4908 C.2     1  UNL1        0.2462
     30 O          59.8103   87.7269   10.7259 O.2     1  UNL1       -0.2730
     31 C          62.4179   85.3464    8.9139 C.3     1  UNL1        0.1108
     32 C          62.6306   84.7103    7.5722 C.3     1  UNL1        0.0939
     33 C          62.9837   87.6844   11.9594 C.3     1  UNL1        0.1715
     34 O          62.5044   89.0289   12.4206 O.3     1  UNL1       -0.3467
     35 C          62.6485   90.2240   11.5257 C.3     1  UNL1        0.1688
     36 C          63.8011   91.1656   11.7116 C.ar    1  UNL1        0.0104
     37 C          64.4595   91.2895   13.0538 C.ar    1  UNL1        0.0188
     38 C          65.6122   92.2311   13.2397 C.ar    1  UNL1        0.0986
     39 N          66.1066   93.0489   12.0836 N.ar    1  UNL1       -0.2423
     40 C          65.4483   92.9251   10.7415 C.ar    1  UNL1        0.0986
     41 C          64.2956   91.9834   10.5555 C.ar    1  UNL1        0.0188
@<TRIPOS>BOND
     1    24    25    1
     2    25    26    1
     3    26    27    1
     4    27    28    1
     5    28    29   am
     6    29    30    2
     7    29    23    1
     8    23    33    1
     9    33    34    1
    10    34    35    1
    11    35    36    1
    12    36    37   ar
    13    37    38   ar
    14    38    39   ar
    15    39    40   ar
    16    40    41   ar
    17    23     1    1
    18     1     2   am
    19     2     3    2
    20     2     5    1
    21     5     6   ar
    22     6     7   ar
    23     7     8   ar
    24     8     9   ar
    25     9    10   ar
    26    10    11    1
    27    11    12    1
    28    12    13   ar
    29    13    14   ar
    30    14    15   ar
    31    15    19    1
    32    19    20    1
    33    19    21    1
    34    19    22    1
    35    15    16   ar
    36    16    17   ar
    37    17    18    1
    38    28    31    1
    39    31    32    1
    40    32    25    1
    41    41    36   ar
    42    10     5   ar
    43    17    12   ar
    44     1     4    1
@<TRIPOS>MOLECULE
*****
 41 44 0 0 0
SMALL
GASTEIGER

@<TRIPOS>ATOM
      1 N          63.4788   86.3654   14.3731 N.am    1  UNL1       -0.2927
      2 C          63.4302   87.7516   13.8021 C.2     1  UNL1        0.2508
      3 O          63.2038   87.9500   12.3326 O.2     1  UNL1       -0.2700
      4 H          63.6274   86.2353   15.3376 H       1  UNL1        0.1502
      5 C          63.6081   88.9396   14.7006 C.ar    1  UNL1        0.1068
      6 C          63.3317   88.8167   16.1698 C.ar    1  UNL1        0.0108
      7 C          63.5096   90.0046   17.0683 C.ar    1  UNL1        0.0210
      8 C          63.9638   91.3153   16.4976 C.ar    1  UNL1        0.1021
      9 N          64.2401   91.4381   15.0284 N.ar    1  UNL1       -0.2097
     10 C          64.0623   90.2503   14.1299 C.ar    1  UNL1        0.2340
     11 O          64.3386   90.3731   12.6607 O.3     1  UNL1       -0.4351
     12 C          64.9364   91.6350   12.1130 C.ar    1  UNL1        0.1576
     13 C          66.0225   92.3405   12.8697 C.ar    1  UNL1        0.0384
     14 C          66.6203   93.6025   12.3219 C.ar    1  UNL1        0.0070
     15 C          66.1320   94.1590   11.0174 C.ar    1  UNL1        0.0725
     16 C          65.0459   93.4535   10.2606 C.ar    1  UNL1        0.0183
     17 C          64.4481   92.1916   10.8084 C.ar    1  UNL1        0.0921
     18 CL         63.3621   91.4861   10.0516 Cl      1  UNL1       -0.0791
     19 C          66.7298   95.4209   10.4696 C.3     1  UNL1        0.4186
     20 F          67.3276   96.6830    9.9218 F       1  UNL1       -0.1659
     21 F          67.8571   94.6293    9.8760 F       1  UNL1       -0.1659
     22 F          65.6026   96.2126   11.0632 F       1  UNL1       -0.1659
     23 C          63.3009   85.1775   13.4746 C.3     1  UNL1        0.1789
     24 C          62.8434   78.9843   10.5277 C.3     1  UNL1        0.0897
     25 N          62.8844   80.1955   11.4115 N.3     1  UNL1       -0.2686
     26 C          62.6323   80.0586   12.8838 C.3     1  UNL1        0.0939
     27 C          62.6734   81.2698   13.7676 C.3     1  UNL1        0.1108
     28 N          62.9666   82.6180   13.1792 N.am    1  UNL1       -0.2753
     29 C          63.0077   83.8293   14.0630 C.2     1  UNL1        0.2462
     30 O          62.7556   83.6923   15.5353 O.2     1  UNL1       -0.2730
     31 C          63.2188   82.7550   11.7069 C.3     1  UNL1        0.1108
     32 C          63.1777   81.5437   10.8231 C.3     1  UNL1        0.0939
     33 C          63.4163   85.3379   11.9876 C.3     1  UNL1        0.1715
     34 O          62.1788   85.4424   11.1463 O.3     1  UNL1       -0.3467
     35 C          62.2877   85.7982    9.6932 C.3     1  UNL1        0.1688
     36 C          61.2568   86.6838    9.0586 C.ar    1  UNL1        0.0104
     37 C          61.2444   88.1538    9.3573 C.ar    1  UNL1        0.0188
     38 C          60.2135   89.0394    8.7227 C.ar    1  UNL1        0.0986
     39 N          59.1949   88.4552    7.7893 N.ar    1  UNL1       -0.2423
     40 C          59.2073   86.9854    7.4905 C.ar    1  UNL1        0.0986
     41 C          60.2382   86.0996    8.1252 C.ar    1  UNL1        0.0188
@<TRIPOS>BOND
     1    24    25    1
     2    25    26    1
     3    26    27    1
     4    27    28    1
     5    28    29   am
     6    29    30    2
     7    29    23    1
     8    23    33    1
     9    33    34    1
    10    34    35    1
    11    35    36    1
    12    36    37   ar
    13    37    38   ar
    14    38    39   ar
    15    39    40   ar
    16    40    41   ar
    17    23     1    1
    18     1     2   am
    19     2     3    2
    20     2     5    1
    21     5     6   ar
    22     6     7   ar
    23     7     8   ar
    24     8     9   ar
    25     9    10   ar
    26    10    11    1
    27    11    12    1
    28    12    13   ar
    29    13    14   ar
    30    14    15   ar
    31    15    19    1
    32    19    20    1
    33    19    21    1
    34    19    22    1
    35    15    16   ar
    36    16    17   ar
    37    17    18    1
    38    28    31    1
    39    31    32    1
    40    32    25    1
    41    41    36   ar
    42    10     5   ar
    43    17    12   ar
    44     1     4    1
@<TRIPOS>MOLECULE
*****
 41 44 0 0 0
SMALL
GASTEIGER

@<TRIPOS>ATOM
      1 N          63.3808   84.6896   13.7908 N.am    1  UNL1       -0.2927
      2 C          64.3198   85.5096   14.6249 C.2     1  UNL1        0.2508
      3 O          65.8000   85.2880   14.5252 O.2     1  UNL1       -0.2700
      4 H          62.4093   84.8350   13.8562 H       1  UNL1        0.1502
      5 C          63.7786   86.5513   15.5588 C.ar    1  UNL1        0.1068
      6 C          63.4349   86.1855   16.9723 C.ar    1  UNL1        0.0108
      7 C          62.8938   87.2271   17.9062 C.ar    1  UNL1        0.0210
      8 C          62.6963   88.6345   17.4265 C.ar    1  UNL1        0.1021
      9 N          63.0399   89.0003   16.0130 N.ar    1  UNL1       -0.2097
     10 C          63.5811   87.9587   15.0791 C.ar    1  UNL1        0.2340
     11 O          63.9248   88.3245   13.6656 O.3     1  UNL1       -0.4351
     12 C          64.4114   89.7069   13.3457 C.ar    1  UNL1        0.1576
     13 C          65.4091   90.3771   14.2432 C.ar    1  UNL1        0.0384
     14 C          65.8958   91.7595   13.9233 C.ar    1  UNL1        0.0070
     15 C          65.3847   92.4715   12.7060 C.ar    1  UNL1        0.0725
     16 C          64.3870   91.8013   11.8086 C.ar    1  UNL1        0.0183
     17 C          63.9004   90.4190   12.1284 C.ar    1  UNL1        0.0921
     18 CL         62.9027   89.7488   11.2310 Cl      1  UNL1       -0.0791
     19 C          65.8714   93.8539   12.3862 C.3     1  UNL1        0.4186
     20 F          66.3581   95.2362   12.0663 F       1  UNL1       -0.1659
     21 F          66.5271   93.9346   13.7329 F       1  UNL1       -0.1659
     22 F          65.2157   93.7731   11.0396 F       1  UNL1       -0.1659
     23 C          63.9220   83.6479   12.8569 C.3     1  UNL1        0.1789
     24 C          60.0630   87.7917    8.9598 C.3     1  UNL1        0.0897
     25 N          61.0318   86.8192    9.5645 N.3     1  UNL1       -0.2686
     26 C          62.0167   86.1003    8.6909 C.3     1  UNL1        0.0939
     27 C          62.9854   85.1277    9.2956 C.3     1  UNL1        0.1108
     28 N          62.9693   84.8741   10.7739 N.am    1  UNL1       -0.2753
     29 C          63.9381   83.9015   11.3786 C.2     1  UNL1        0.2462
     30 O          64.9229   83.1826   10.5050 O.2     1  UNL1       -0.2730
     31 C          61.9845   85.5930   11.6475 C.3     1  UNL1        0.1108
     32 C          61.0157   86.5655   11.0428 C.3     1  UNL1        0.0939
     33 C          64.4471   82.3526   13.4014 C.3     1  UNL1        0.1715
     34 O          63.5737   81.4942   14.2678 O.3     1  UNL1       -0.3467
     35 C          62.4223   80.7458   13.6642 C.3     1  UNL1        0.1688
     36 C          62.5601   80.1268   12.3049 C.ar    1  UNL1        0.0104
     37 C          62.7433   80.9992   11.0985 C.ar    1  UNL1        0.0188
     38 C          62.8812   80.3801    9.7392 C.ar    1  UNL1        0.0986
     39 N          62.8358   78.8886    9.5863 N.ar    1  UNL1       -0.2423
     40 C          62.6526   78.0162   10.7926 C.ar    1  UNL1        0.0986
     41 C          62.5148   78.6353   12.1520 C.ar    1  UNL1        0.0188
@<TRIPOS>BOND
     1    24    25    1
     2    25    26    1
     3    26    27    1
     4    27    28    1
     5    28    29   am
     6    29    30    2
     7    29    23    1
     8    23    33    1
     9    33    34    1
    10    34    35    1
    11    35    36    1
    12    36    37   ar
    13    37    38   ar
    14    38    39   ar
    15    39    40   ar
    16    40    41   ar
    17    23     1    1
    18     1     2   am
    19     2     3    2
    20     2     5    1
    21     5     6   ar
    22     6     7   ar
    23     7     8   ar
    24     8     9   ar
    25     9    10   ar
    26    10    11    1
    27    11    12    1
    28    12    13   ar
    29    13    14   ar
    30    14    15   ar
    31    15    19    1
    32    19    20    1
    33    19    21    1
    34    19    22    1
    35    15    16   ar
    36    16    17   ar
    37    17    18    1
    38    28    31    1
    39    31    32    1
    40    32    25    1
    41    41    36   ar
    42    10     5   ar
    43    17    12   ar
    44     1     4    1
