@<TRIPOS>MOLECULE
*****
 27 30 0 0 0
SMALL
GASTEIGER

@<TRIPOS>ATOM
      1 C          63.8980   85.4582   13.5695 C.2     1  UNL1        0.1203
      2 C          64.0649   84.1668   12.8248 C.2     1  UNL1        0.0299
      3 C          63.4455   83.9973   11.4692 C.2     1  UNL1       -0.0018
      4 C          63.6124   82.7060   10.7245 C.3     1  UNL1        0.0327
      5 C          62.6590   85.1192   10.8584 C.ar    1  UNL1        0.0754
      6 N          62.0395   84.9496    9.5028 N.ar    1  UNL1       -0.2257
      7 C          61.2532   86.0714    8.8920 C.ar    1  UNL1        0.1846
      8 N          60.5328   86.1953    7.5821 N.2     1  UNL1       -0.1288
      9 N          59.9207   87.5632    7.5173 N.2     1  UNL1       -0.1508
     10 C          60.2627   88.2847    8.7871 C.2     1  UNL1        0.0837
     11 C          59.8531   89.6827    9.1446 C.3     1  UNL1        0.0541
     12 C          61.0863   87.3628    9.6367 C.ar    1  UNL1        0.0512
     13 C          61.7057   87.5323   10.9923 C.ar    1  UNL1        0.0105
     14 C          62.4921   86.4104   11.6031 C.ar    1  UNL1        0.0015
     15 C          63.1116   86.5800   12.9587 C.3     1  UNL1        0.0914
     16 C          61.5388   88.8236   11.7370 C.3     1  UNL1        0.1550
     17 O          60.2756   89.0912   12.5005 O.3     1  UNL1       -0.3756
     18 H          59.6762   88.3340   12.4094 H       1  UNL1        0.2112
     19 C          62.6350   89.8472   11.7184 C.ar    1  UNL1        0.0138
     20 C          62.9207   90.6175   10.4633 C.ar    1  UNL1        0.0192
     21 C          64.0170   91.6412   10.4448 C.ar    1  UNL1        0.1011
     22 N          64.8275   91.8946   11.6811 N.ar    1  UNL1       -0.2165
     23 C          64.5419   91.1243   12.9362 C.ar    1  UNL1        0.2221
     24 F          65.3525   91.3777   14.1726 F       1  UNL1       -0.1832
     25 C          63.4456   90.1006   12.9549 C.ar    1  UNL1        0.0481
     26 C          63.6548   85.6049   16.1520 C.3     1  UNL1        0.2520
     27 O          64.5174   85.6276   14.9250 O.2     1  UNL1       -0.4754
@<TRIPOS>BOND
     1    26    27    1
     2    27     1    1
     3     1     2    2
     4     2     3    1
     5     3     4    1
     6     3     5    2
     7     5     6   ar
     8     6     7   ar
     9     7     8    1
    10     8     9    2
    11     9    10    1
    12    10    11    1
    13    10    12    2
    14    12    13   ar
    15    13    16    1
    16    16    17    1
    17    16    19    1
    18    19    20   ar
    19    20    21   ar
    20    21    22   ar
    21    22    23   ar
    22    23    24    1
    23    23    25   ar
    24    13    14   ar
    25    14    15    1
    26    15     1    1
    27    14     5   ar
    28    12     7   ar
    29    25    19   ar
    30    17    18    1
@<TRIPOS>MOLECULE
*****
 27 30 0 0 0
SMALL
GASTEIGER

@<TRIPOS>ATOM
      1 C          67.6422   92.1850   14.2756 C.2     1  UNL1        0.1203
      2 C          68.0057   92.6339   12.8912 C.2     1  UNL1        0.0299
      3 C          67.0289   92.4607   11.7660 C.2     1  UNL1       -0.0018
      4 C          67.3923   92.9096   10.3816 C.3     1  UNL1        0.0327
      5 C          65.6887   91.8387   12.0253 C.ar    1  UNL1        0.0754
      6 N          64.7120   91.6656   10.9000 N.ar    1  UNL1       -0.2257
      7 C          63.3719   91.0436   11.1592 C.ar    1  UNL1        0.1846
      8 N          62.2120   90.7457   10.2559 N.2     1  UNL1       -0.1288
      9 N          61.1318   90.1128   11.0820 N.2     1  UNL1       -0.1508
     10 C          61.6240   90.0195   12.4959 C.2     1  UNL1        0.0837
     11 C          60.8650   89.4508   13.6580 C.3     1  UNL1        0.0541
     12 C          63.0085   90.5948   12.5436 C.ar    1  UNL1        0.0512
     13 C          63.9852   90.7679   13.6688 C.ar    1  UNL1        0.0105
     14 C          65.3253   91.3899   13.4095 C.ar    1  UNL1        0.0015
     15 C          66.3021   91.5630   14.5348 C.3     1  UNL1        0.0914
     16 C          63.6218   90.3191   15.0532 C.3     1  UNL1        0.1550
     17 O          63.2012   91.3265   16.0820 O.3     1  UNL1       -0.3756
     18 H          63.2184   92.2141   15.6913 H       1  UNL1        0.2112
     19 C          63.6790   88.8630   15.4087 C.ar    1  UNL1        0.0138
     20 C          64.3515   87.8912   14.4849 C.ar    1  UNL1        0.0192
     21 C          64.4087   86.4351   14.8406 C.ar    1  UNL1        0.1011
     22 N          63.7934   85.9508   16.1199 N.ar    1  UNL1       -0.2165
     23 C          63.1210   86.9226   17.0438 C.ar    1  UNL1        0.2221
     24 F          62.5057   86.4382   18.3232 F       1  UNL1       -0.1832
     25 C          63.0637   88.3787   16.6882 C.ar    1  UNL1        0.0481
     26 C          68.9497   93.7328   15.9019 C.3     1  UNL1        0.2520
     27 O          68.6189   92.3582   15.4007 O.2     1  UNL1       -0.4754
@<TRIPOS>BOND
     1    26    27    1
     2    27     1    1
     3     1     2    2
     4     2     3    1
     5     3     4    1
     6     3     5    2
     7     5     6   ar
     8     6     7   ar
     9     7     8    1
    10     8     9    2
    11     9    10    1
    12    10    11    1
    13    10    12    2
    14    12    13   ar
    15    13    16    1
    16    16    17    1
    17    16    19    1
    18    19    20   ar
    19    20    21   ar
    20    21    22   ar
    21    22    23   ar
    22    23    24    1
    23    23    25   ar
    24    13    14   ar
    25    14    15    1
    26    15     1    1
    27    14     5   ar
    28    12     7   ar
    29    25    19   ar
    30    17    18    1
@<TRIPOS>MOLECULE
*****
 27 30 0 0 0
SMALL
GASTEIGER

@<TRIPOS>ATOM
      1 C          61.0533   85.9518    8.3615 C.2     1  UNL1        0.1203
      2 C          60.6329   87.3742    8.5853 C.2     1  UNL1        0.0299
      3 C          61.0725   88.1004    9.8220 C.2     1  UNL1       -0.0018
      4 C          60.6521   89.5228   10.0458 C.3     1  UNL1        0.0327
      5 C          61.9326   87.4043   10.8348 C.ar    1  UNL1        0.0754
      6 N          62.3723   88.1306   12.0715 N.ar    1  UNL1       -0.2257
      7 C          63.2323   87.4345   13.0842 C.ar    1  UNL1        0.1846
      8 N          63.8160   87.8906   14.3885 N.2     1  UNL1       -0.1288
      9 N          64.5972   86.7501   14.9708 N.2     1  UNL1       -0.1508
     10 C          64.4963   85.5891   14.0263 C.2     1  UNL1        0.0837
     11 C          65.1280   84.2418   14.2148 C.3     1  UNL1        0.0541
     12 C          63.6527   86.0121   12.8604 C.ar    1  UNL1        0.0512
     13 C          63.2131   85.2859   11.6237 C.ar    1  UNL1        0.0105
     14 C          62.3530   85.9820   10.6110 C.ar    1  UNL1        0.0015
     15 C          61.9134   85.2556    9.3743 C.3     1  UNL1        0.0914
     16 C          63.6335   83.8635   11.3999 C.3     1  UNL1        0.1550
     17 O          64.6989   83.5459   10.3927 O.3     1  UNL1       -0.3756
     18 H          65.0075   84.3670    9.9788 H       1  UNL1        0.2112
     19 C          62.9885   82.7587   12.1831 C.ar    1  UNL1        0.0138
     20 C          62.2409   83.0716   13.4453 C.ar    1  UNL1        0.0192
     21 C          61.5960   81.9667   14.2285 C.ar    1  UNL1        0.1011
     22 N          61.6987   80.5490   13.7495 N.ar    1  UNL1       -0.2165
     23 C          62.4463   80.2361   12.4872 C.ar    1  UNL1        0.2221
     24 F          62.5490   78.8183   12.0082 F       1  UNL1       -0.1832
     25 C          63.0912   81.3409   11.7040 C.ar    1  UNL1        0.0481
     26 C          61.6244   84.5193    6.2706 C.3     1  UNL1        0.2520
     27 O          60.6137   85.2255    7.1249 O.2     1  UNL1       -0.4754
@<TRIPOS>BOND
     1    26    27    1
     2    27     1    1
     3     1     2    2
     4     2     3    1
     5     3     4    1
     6     3     5    2
     7     5     6   ar
     8     6     7   ar
     9     7     8    1
    10     8     9    2
    11     9    10    1
    12    10    11    1
    13    10    12    2
    14    12    13   ar
    15    13    16    1
    16    16    17    1
    17    16    19    1
    18    19    20   ar
    19    20    21   ar
    20    21    22   ar
    21    22    23   ar
    22    23    24    1
    23    23    25   ar
    24    13    14   ar
    25    14    15    1
    26    15     1    1
    27    14     5   ar
    28    12     7   ar
    29    25    19   ar
    30    17    18    1
@<TRIPOS>MOLECULE
*****
 27 30 0 0 0
SMALL
GASTEIGER

@<TRIPOS>ATOM
      1 C          59.9379   92.6051    3.7893 C.2     1  UNL1        0.1203
      2 C          61.2410   91.8809    3.9553 C.2     1  UNL1        0.0299
      3 C          62.2762   91.9417    2.8715 C.2     1  UNL1       -0.0018
      4 C          63.5793   91.2176    3.0374 C.3     1  UNL1        0.0327
      5 C          62.0082   92.7267    1.6216 C.ar    1  UNL1        0.0754
      6 N          63.0435   92.7875    0.5377 N.ar    1  UNL1       -0.2257
      7 C          62.7755   93.5725   -0.7120 C.ar    1  UNL1        0.1846
      8 N          63.5995   93.8131   -1.9421 N.2     1  UNL1       -0.1288
      9 N          62.8057   94.6860   -2.8683 N.2     1  UNL1       -0.1508
     10 C          61.4911   94.9849   -2.2107 C.2     1  UNL1        0.0837
     11 C          60.3887   95.8245   -2.7849 C.3     1  UNL1        0.0541
     12 C          61.4724   94.2967   -0.8780 C.ar    1  UNL1        0.0512
     13 C          60.4373   94.2358    0.2058 C.ar    1  UNL1        0.0105
     14 C          60.7052   93.4509    1.4556 C.ar    1  UNL1        0.0015
     15 C          59.6700   93.3901    2.5395 C.3     1  UNL1        0.0914
     16 C          59.1342   94.9600    0.0399 C.3     1  UNL1        0.1550
     17 O          58.9899   96.3680    0.5369 O.3     1  UNL1       -0.3756
     18 H          59.8255   96.6572    0.9358 H       1  UNL1        0.2112
     19 C          57.9753   94.2763   -0.6231 C.ar    1  UNL1        0.0138
     20 C          58.0007   92.7912   -0.8328 C.ar    1  UNL1        0.0192
     21 C          56.8417   92.1075   -1.4958 C.ar    1  UNL1        0.1011
     22 N          55.6576   92.9088   -1.9490 N.ar    1  UNL1       -0.2165
     23 C          55.6322   94.3939   -1.7392 C.ar    1  UNL1        0.2221
     24 F          54.4479   95.1953   -2.1925 F       1  UNL1       -0.1832
     25 C          56.7911   95.0777   -1.0763 C.ar    1  UNL1        0.0481
     26 C          57.8683   91.4580    4.8622 C.3     1  UNL1        0.2520
     27 O          58.9027   92.5443    4.8731 O.2     1  UNL1       -0.4754
@<TRIPOS>BOND
     1    26    27    1
     2    27     1    1
     3     1     2    2
     4     2     3    1
     5     3     4    1
     6     3     5    2
     7     5     6   ar
     8     6     7   ar
     9     7     8    1
    10     8     9    2
    11     9    10    1
    12    10    11    1
    13    10    12    2
    14    12    13   ar
    15    13    16    1
    16    16    17    1
    17    16    19    1
    18    19    20   ar
    19    20    21   ar
    20    21    22   ar
    21    22    23   ar
    22    23    24    1
    23    23    25   ar
    24    13    14   ar
    25    14    15    1
    26    15     1    1
    27    14     5   ar
    28    12     7   ar
    29    25    19   ar
    30    17    18    1
@<TRIPOS>MOLECULE
*****
 27 30 0 0 0
SMALL
GASTEIGER

@<TRIPOS>ATOM
      1 C          59.8810   88.8758    8.0718 C.2     1  UNL1        0.1203
      2 C          59.9195   87.5391    7.3922 C.2     1  UNL1        0.0299
      3 C          60.6459   86.3932    8.0320 C.2     1  UNL1       -0.0018
      4 C          60.6844   85.0565    7.3525 C.3     1  UNL1        0.0327
      5 C          61.3337   86.5840    9.3514 C.ar    1  UNL1        0.0754
      6 N          62.0600   85.4380    9.9912 N.ar    1  UNL1       -0.2257
      7 C          62.7477   85.6288   11.3105 C.ar    1  UNL1        0.1846
      8 N          63.5361   84.6912   12.1762 N.2     1  UNL1       -0.1288
      9 N          63.9848   85.4485   13.3908 N.2     1  UNL1       -0.1508
     10 C          63.4737   86.8541   13.2757 C.2     1  UNL1        0.0837
     11 C          63.6894   87.9549   14.2715 C.3     1  UNL1        0.0541
     12 C          62.7092   86.9655   11.9900 C.ar    1  UNL1        0.0512
     13 C          61.9829   88.1114   11.3502 C.ar    1  UNL1        0.0105
     14 C          61.2951   87.9206   10.0309 C.ar    1  UNL1        0.0015
     15 C          60.5688   89.0666    9.3911 C.3     1  UNL1        0.0914
     16 C          61.9443   89.4481   12.0297 C.3     1  UNL1        0.1550
     17 O          60.7967   89.7992   12.9297 O.3     1  UNL1       -0.3756
     18 H          60.1726   89.0573   12.9621 H       1  UNL1        0.2112
     19 C          63.0533   90.4338   11.8093 C.ar    1  UNL1        0.0138
     20 C          63.2765   91.0191   10.4463 C.ar    1  UNL1        0.0192
     21 C          64.3855   92.0049   10.2259 C.ar    1  UNL1        0.1011
     22 N          65.2712   92.4052   11.3683 N.ar    1  UNL1       -0.2165
     23 C          65.0479   91.8198   12.7313 C.ar    1  UNL1        0.2221
     24 F          65.9337   92.2201   13.8738 F       1  UNL1       -0.1832
     25 C          63.9390   90.8341   12.9518 C.ar    1  UNL1        0.0481
     26 C          59.0976   90.1327    5.9372 C.3     1  UNL1        0.2520
     27 O          59.1547   90.0217    7.4320 O.2     1  UNL1       -0.4754
@<TRIPOS>BOND
     1    26    27    1
     2    27     1    1
     3     1     2    2
     4     2     3    1
     5     3     4    1
     6     3     5    2
     7     5     6   ar
     8     6     7   ar
     9     7     8    1
    10     8     9    2
    11     9    10    1
    12    10    11    1
    13    10    12    2
    14    12    13   ar
    15    13    16    1
    16    16    17    1
    17    16    19    1
    18    19    20   ar
    19    20    21   ar
    20    21    22   ar
    21    22    23   ar
    22    23    24    1
    23    23    25   ar
    24    13    14   ar
    25    14    15    1
    26    15     1    1
    27    14     5   ar
    28    12     7   ar
    29    25    19   ar
    30    17    18    1
@<TRIPOS>MOLECULE
*****
 27 30 0 0 0
SMALL
GASTEIGER

@<TRIPOS>ATOM
      1 C          62.7506   83.7270   12.8528 C.2     1  UNL1        0.1203
      2 C          63.6738   84.1537   13.9553 C.2     1  UNL1        0.0299
      3 C          64.0291   85.6020   14.1176 C.2     1  UNL1       -0.0018
      4 C          64.9523   86.0288   15.2201 C.3     1  UNL1        0.0327
      5 C          63.4611   86.6235   13.1773 C.ar    1  UNL1        0.0754
      6 N          63.8164   88.0718   13.3396 N.ar    1  UNL1       -0.2257
      7 C          63.2485   89.0933   12.3994 C.ar    1  UNL1        0.1846
      8 N          63.4171   90.5812   12.3129 N.2     1  UNL1       -0.1288
      9 N          62.5980   91.0741   11.1570 N.2     1  UNL1       -0.1508
     10 C          61.9233   89.8907   10.5290 C.2     1  UNL1        0.0837
     11 C          61.0073   89.9254    9.3416 C.3     1  UNL1        0.0541
     12 C          62.3253   88.6664   11.2969 C.ar    1  UNL1        0.0512
     13 C          61.9700   87.2182   11.1346 C.ar    1  UNL1        0.0105
     14 C          62.5380   86.1968   12.0748 C.ar    1  UNL1        0.0015
     15 C          62.1826   84.7485   11.9125 C.3     1  UNL1        0.0914
     16 C          61.0468   86.7914   10.0321 C.3     1  UNL1        0.1550
     17 O          59.5872   87.1301   10.1027 O.3     1  UNL1       -0.3756
     18 H          59.4088   87.6228   10.9190 H       1  UNL1        0.2112
     19 C          61.5832   86.0259    8.8589 C.ar    1  UNL1        0.0138
     20 C          63.0579   85.7826    8.7329 C.ar    1  UNL1        0.0192
     21 C          63.5942   85.0171    7.5597 C.ar    1  UNL1        0.1011
     22 N          62.6558   84.4949    6.5126 N.ar    1  UNL1       -0.2165
     23 C          61.1810   84.7381    6.6386 C.ar    1  UNL1        0.2221
     24 F          60.2425   84.2159    5.5914 F       1  UNL1       -0.1832
     25 C          60.6446   85.5037    7.8117 C.ar    1  UNL1        0.0481
     26 C          61.8544   81.5041   13.8556 C.3     1  UNL1        0.2520
     27 O          62.3953   82.2788   12.6905 O.2     1  UNL1       -0.4754
@<TRIPOS>BOND
     1    26    27    1
     2    27     1    1
     3     1     2    2
     4     2     3    1
     5     3     4    1
     6     3     5    2
     7     5     6   ar
     8     6     7   ar
     9     7     8    1
    10     8     9    2
    11     9    10    1
    12    10    11    1
    13    10    12    2
    14    12    13   ar
    15    13    16    1
    16    16    17    1
    17    16    19    1
    18    19    20   ar
    19    20    21   ar
    20    21    22   ar
    21    22    23   ar
    22    23    24    1
    23    23    25   ar
    24    13    14   ar
    25    14    15    1
    26    15     1    1
    27    14     5   ar
    28    12     7   ar
    29    25    19   ar
    30    17    18    1
@<TRIPOS>MOLECULE
*****
 27 30 0 0 0
SMALL
GASTEIGER

@<TRIPOS>ATOM
      1 C          60.0034   92.9228    2.2048 C.2     1  UNL1        0.1203
      2 C          61.4474   92.6500    2.5057 C.2     1  UNL1        0.0299
      3 C          62.4929   92.9090    1.4617 C.2     1  UNL1       -0.0018
      4 C          63.9369   92.6363    1.7625 C.3     1  UNL1        0.0327
      5 C          62.0943   93.4408    0.1169 C.ar    1  UNL1        0.0754
      6 N          63.1399   93.6998   -0.9271 N.ar    1  UNL1       -0.2257
      7 C          62.7414   94.2315   -2.2719 C.ar    1  UNL1        0.1846
      8 N          63.5429   94.5814   -3.4906 N.2     1  UNL1       -0.1288
      9 N          62.5942   95.0704   -4.5445 N.2     1  UNL1       -0.1508
     10 C          61.2064   95.0227   -3.9773 C.2     1  UNL1        0.0837
     11 C          59.9485   95.4231   -4.6896 C.3     1  UNL1        0.0541
     12 C          61.2974   94.5042   -2.5727 C.ar    1  UNL1        0.0512
     13 C          60.2519   94.2452   -1.5287 C.ar    1  UNL1        0.0105
     14 C          60.6504   93.7135   -0.1839 C.ar    1  UNL1        0.0015
     15 C          59.6049   93.4545    0.8600 C.3     1  UNL1        0.0914
     16 C          58.8079   94.5179   -1.8295 C.3     1  UNL1        0.1550
     17 O          58.2392   95.8868   -1.5989 O.3     1  UNL1       -0.3756
     18 H          58.9331   96.4716   -1.2562 H       1  UNL1        0.2112
     19 C          57.9325   93.4219   -2.3609 C.ar    1  UNL1        0.0138
     20 C          56.8242   92.8701   -1.5141 C.ar    1  UNL1        0.0192
     21 C          55.9488   91.7740   -2.0456 C.ar    1  UNL1        0.1011
     22 N          56.1817   91.2298   -3.4238 N.ar    1  UNL1       -0.2165
     23 C          57.2901   91.7817   -4.2707 C.ar    1  UNL1        0.2221
     24 F          57.5230   91.2375   -5.6489 F       1  UNL1       -0.1832
     25 C          58.1655   92.8778   -3.7392 C.ar    1  UNL1        0.0481
     26 C          59.3522   92.0975    4.5808 C.3     1  UNL1        0.2520
     27 O          58.9579   92.6638    3.2488 O.2     1  UNL1       -0.4754
@<TRIPOS>BOND
     1    26    27    1
     2    27     1    1
     3     1     2    2
     4     2     3    1
     5     3     4    1
     6     3     5    2
     7     5     6   ar
     8     6     7   ar
     9     7     8    1
    10     8     9    2
    11     9    10    1
    12    10    11    1
    13    10    12    2
    14    12    13   ar
    15    13    16    1
    16    16    17    1
    17    16    19    1
    18    19    20   ar
    19    20    21   ar
    20    21    22   ar
    21    22    23   ar
    22    23    24    1
    23    23    25   ar
    24    13    14   ar
    25    14    15    1
    26    15     1    1
    27    14     5   ar
    28    12     7   ar
    29    25    19   ar
    30    17    18    1
@<TRIPOS>MOLECULE
*****
 27 30 0 0 0
SMALL
GASTEIGER

@<TRIPOS>ATOM
      1 C          61.2670   87.0506    8.9776 C.2     1  UNL1        0.1203
      2 C          61.6627   85.6060    8.8952 C.2     1  UNL1        0.0299
      3 C          62.4381   84.9759   10.0140 C.2     1  UNL1       -0.0018
      4 C          62.8338   83.5314    9.9317 C.3     1  UNL1        0.0327
      5 C          62.8179   85.7903   11.2151 C.ar    1  UNL1        0.0754
      6 N          63.5933   85.1601   12.3339 N.ar    1  UNL1       -0.2257
      7 C          63.9730   85.9745   13.5350 C.ar    1  UNL1        0.1846
      8 N          64.7296   85.6293   14.7833 N.2     1  UNL1       -0.1288
      9 N          64.8015   86.8604   15.6371 N.2     1  UNL1       -0.1508
     10 C          64.0893   87.9666   14.9165 C.2     1  UNL1        0.0837
     11 C          63.9191   89.3733   15.4087 C.3     1  UNL1        0.0541
     12 C          63.5773   87.4190   13.6172 C.ar    1  UNL1        0.0512
     13 C          62.8019   88.0492   12.4985 C.ar    1  UNL1        0.0105
     14 C          62.4222   87.2348   11.2974 C.ar    1  UNL1        0.0015
     15 C          61.6467   87.8650   10.1786 C.3     1  UNL1        0.0914
     16 C          62.4062   89.4937   12.5808 C.3     1  UNL1        0.1550
     17 O          61.0806   89.8759   13.1697 O.3     1  UNL1       -0.3756
     18 H          60.6068   89.0758   13.4460 H       1  UNL1        0.2112
     19 C          63.3361   90.5561   12.0741 C.ar    1  UNL1        0.0138
     20 C          63.2827   90.9754   10.6349 C.ar    1  UNL1        0.0192
     21 C          64.2126   92.0378   10.1284 C.ar    1  UNL1        0.1011
     22 N          65.1958   92.6809   11.0609 N.ar    1  UNL1       -0.2165
     23 C          65.2492   92.2615   12.5002 C.ar    1  UNL1        0.2221
     24 F          66.2324   92.9046   13.4328 F       1  UNL1       -0.1832
     25 C          64.3193   91.1991   13.0068 C.ar    1  UNL1        0.0481
     26 C          59.0751   87.2612    7.5987 C.3     1  UNL1        0.2520
     27 O          60.4916   87.6807    7.8588 O.2     1  UNL1       -0.4754
@<TRIPOS>BOND
     1    26    27    1
     2    27     1    1
     3     1     2    2
     4     2     3    1
     5     3     4    1
     6     3     5    2
     7     5     6   ar
     8     6     7   ar
     9     7     8    1
    10     8     9    2
    11     9    10    1
    12    10    11    1
    13    10    12    2
    14    12    13   ar
    15    13    16    1
    16    16    17    1
    17    16    19    1
    18    19    20   ar
    19    20    21   ar
    20    21    22   ar
    21    22    23   ar
    22    23    24    1
    23    23    25   ar
    24    13    14   ar
    25    14    15    1
    26    15     1    1
    27    14     5   ar
    28    12     7   ar
    29    25    19   ar
    30    17    18    1
@<TRIPOS>MOLECULE
*****
 27 30 0 0 0
SMALL
GASTEIGER

@<TRIPOS>ATOM
      1 C          64.4435   94.5837   -0.0475 C.2     1  UNL1        0.1203
      2 C          64.0790   93.7732    1.1609 C.2     1  UNL1        0.0299
      3 C          62.7481   93.0847    1.2286 C.2     1  UNL1       -0.0018
      4 C          62.3835   92.2742    2.4369 C.3     1  UNL1        0.0327
      5 C          61.7817   93.2068    0.0878 C.ar    1  UNL1        0.0754
      6 N          60.4507   92.5182    0.1555 N.ar    1  UNL1       -0.2257
      7 C          59.4843   92.6402   -0.9852 C.ar    1  UNL1        0.1846
      8 N          58.1103   92.0787   -1.2010 N.2     1  UNL1       -0.1288
      9 N          57.6256   92.5422   -2.5428 N.2     1  UNL1       -0.1508
     10 C          58.7001   93.3902   -3.1562 C.2     1  UNL1        0.0837
     11 C          58.6370   94.0600   -4.4969 C.3     1  UNL1        0.0541
     12 C          59.8489   93.4508   -2.1936 C.ar    1  UNL1        0.0512
     13 C          61.1799   94.1393   -2.2612 C.ar    1  UNL1        0.0105
     14 C          62.1462   94.0172   -1.1205 C.ar    1  UNL1        0.0015
     15 C          63.4772   94.7058   -1.1882 C.3     1  UNL1        0.0914
     16 C          61.5444   94.9498   -3.4696 C.3     1  UNL1        0.1550
     17 O          61.2391   96.4180   -3.5080 O.3     1  UNL1       -0.3756
     18 H          60.8091   96.6806   -2.6791 H       1  UNL1        0.2112
     19 C          62.2144   94.2923   -4.6396 C.ar    1  UNL1        0.0138
     20 C          61.7571   94.5984   -6.0350 C.ar    1  UNL1        0.0192
     21 C          62.4271   93.9408   -7.2050 C.ar    1  UNL1        0.1011
     22 N          63.5542   92.9772   -6.9795 N.ar    1  UNL1       -0.2165
     23 C          64.0114   92.6710   -5.5840 C.ar    1  UNL1        0.2221
     24 F          65.1386   91.7073   -5.3585 F       1  UNL1       -0.1832
     25 C          63.3415   93.3286   -4.4140 C.ar    1  UNL1        0.0481
     26 C          65.8554   96.7080   -0.5421 C.3     1  UNL1        0.2520
     27 O          65.7745   95.2722   -0.1151 O.2     1  UNL1       -0.4754
@<TRIPOS>BOND
     1    26    27    1
     2    27     1    1
     3     1     2    2
     4     2     3    1
     5     3     4    1
     6     3     5    2
     7     5     6   ar
     8     6     7   ar
     9     7     8    1
    10     8     9    2
    11     9    10    1
    12    10    11    1
    13    10    12    2
    14    12    13   ar
    15    13    16    1
    16    16    17    1
    17    16    19    1
    18    19    20   ar
    19    20    21   ar
    20    21    22   ar
    21    22    23   ar
    22    23    24    1
    23    23    25   ar
    24    13    14   ar
    25    14    15    1
    26    15     1    1
    27    14     5   ar
    28    12     7   ar
    29    25    19   ar
    30    17    18    1
