@<TRIPOS>MOLECULE
*****
 33 36 0 0 0
SMALL
GASTEIGER

@<TRIPOS>ATOM
      1 C          63.5052   85.5431   12.8695 C.ar    1  UNL1       -0.0004
      2 C          64.2288   85.5031   14.1828 C.ar    1  UNL1       -0.0024
      3 C          64.5955   86.7815   14.8762 C.ar    1  UNL1       -0.0002
      4 C          64.2387   88.1001   14.2564 C.ar    1  UNL1        0.0030
      5 C          64.6054   89.3786   14.9500 C.ar    1  UNL1        0.0369
      6 C          64.2486   90.6971   14.3301 C.ar    1  UNL1        0.1386
      7 C          63.5250   90.7371   13.0168 C.ar    1  UNL1        0.0369
      8 C          63.1583   89.4586   12.3233 C.ar    1  UNL1        0.0031
      9 C          63.5151   88.1401   12.9431 C.ar    1  UNL1       -0.0001
     10 C          63.1484   86.8616   12.2496 C.ar    1  UNL1       -0.0024
     11 C          63.1385   84.2646   12.1759 C.3     1  UNL1        0.1240
     12 N          62.6025   83.1088   12.9678 N.ar    1  UNL1       -0.3045
     13 C          62.3581   81.7227   12.4493 C.ar    1  UNL1        0.0983
     14 C          61.8214   80.8935   13.5782 C.ar    1  UNL1        0.1193
     15 N          61.7341   81.7672   14.7944 N.ar    1  UNL1       -0.2223
     16 C          62.2169   83.1363   14.4171 C.ar    1  UNL1        0.1788
     17 C          63.3077   84.1418   10.6906 C.3     1  UNL1        0.0826
     18 C          64.2338   83.1066   10.1242 C.3     1  UNL1        0.0197
     19 N          62.5509   85.0543    9.7715 N.3     1  UNL1       -0.2720
     20 C          60.6934   86.8570    9.5477 C.3     1  UNL1        0.0188
     21 C          61.2235   85.6112   10.1934 C.3     1  UNL1        0.0722
     22 C          63.1215   85.4099    8.4307 C.3     1  UNL1        0.0722
     23 C          62.5094   84.8474    7.1821 C.3     1  UNL1        0.0188
     24 O          64.6153   91.9756   15.0236 O.3     1  UNL1       -0.4751
     25 C          65.5608   92.9391   14.3696 C.3     1  UNL1        0.2103
     26 C          67.0382   92.6826   14.4073 C.3     1  UNL1        0.0723
     27 C          68.4921   92.4368   14.1325 C.3     1  UNL1        0.0088
     28 C          69.1939   92.2871   15.4496 C.3     1  UNL1        0.0005
     29 C          68.1738   92.4403   16.5385 C.3     1  UNL1        0.0005
     30 C          66.8414   92.6848   15.8943 C.3     1  UNL1        0.0088
     31 C          66.9260   92.7340   12.9124 C.2     1  UNL1        0.0532
     32 O          65.7371   93.3865   12.2714 O.co2   1  UNL1       -0.5491
     33 O          68.0028   92.1330   12.0584 O.co2   1  UNL1       -0.5491
@<TRIPOS>UNITY_ATOM_ATTR
32 1
charge -1
@<TRIPOS>BOND
     1    20    21    1
     2    21    19    1
     3    19    22    1
     4    22    23    1
     5    19    17    1
     6    17    18    1
     7    17    11    1
     8    11     1    1
     9     1     2   ar
    10     2     3   ar
    11     3     4   ar
    12     4     5   ar
    13     5     6   ar
    14     6    24    1
    15    24    25    1
    16    25    26    1
    17    26    31    1
    18    31    32   ar
    19    31    33   ar
    20    26    27    1
    21    27    28    1
    22    28    29    1
    23    29    30    1
    24     6     7   ar
    25     7     8   ar
    26     8     9   ar
    27     9    10   ar
    28    11    12    1
    29    12    13   ar
    30    13    14   ar
    31    14    15   ar
    32    15    16   ar
    33    10     1   ar
    34    16    12   ar
    35     9     4   ar
    36    30    26    1
@<TRIPOS>MOLECULE
*****
 33 36 0 0 0
SMALL
GASTEIGER

@<TRIPOS>ATOM
      1 C          65.3392   92.4720   11.7479 C.ar    1  UNL1       -0.0004
      2 C          64.5769   92.6015   10.4626 C.ar    1  UNL1       -0.0024
      3 C          63.5485   91.5738   10.0937 C.ar    1  UNL1       -0.0002
      4 C          63.2823   90.4166   11.0103 C.ar    1  UNL1        0.0030
      5 C          62.2538   89.3889   10.6414 C.ar    1  UNL1        0.0369
      6 C          61.9876   88.2317   11.5579 C.ar    1  UNL1        0.1386
      7 C          62.7499   88.1022   12.8433 C.ar    1  UNL1        0.0369
      8 C          63.7783   89.1299   13.2121 C.ar    1  UNL1        0.0031
      9 C          64.0445   90.2871   12.2956 C.ar    1  UNL1       -0.0001
     10 C          65.0730   91.3148   12.6644 C.ar    1  UNL1       -0.0024
     11 C          66.3677   93.4997   12.1168 C.3     1  UNL1        0.1240
     12 N          67.1860   93.3284   13.3622 N.ar    1  UNL1       -0.3045
     13 C          66.9080   93.9607   14.6938 C.ar    1  UNL1        0.0983
     14 C          67.9761   93.5178   15.6493 C.ar    1  UNL1        0.1193
     15 N          68.9143   92.6119   14.9082 N.ar    1  UNL1       -0.2223
     16 C          68.4259   92.4949   13.4948 C.ar    1  UNL1        0.1788
     17 C          66.5779   94.6987   11.2403 C.3     1  UNL1        0.0826
     18 C          66.0859   96.0455   11.6810 C.3     1  UNL1        0.0197
     19 N          67.2800   94.5509    9.9230 N.3     1  UNL1       -0.2720
     20 C          67.5218   96.5466    8.2772 C.3     1  UNL1        0.0188
     21 C          66.7956   95.3130    8.7253 C.3     1  UNL1        0.0722
     22 C          68.4665   93.6411    9.8035 C.3     1  UNL1        0.0722
     23 C          68.3165   92.2930    9.1632 C.3     1  UNL1        0.0188
     24 O          60.9591   87.2039   11.1891 O.3     1  UNL1       -0.4751
     25 C          61.3374   85.7538   11.1245 C.3     1  UNL1        0.2103
     26 C          62.1596   85.2435    9.9784 C.3     1  UNL1        0.0723
     27 C          63.1448   84.5875    9.0570 C.3     1  UNL1        0.0088
     28 C          62.8017   84.9856    7.6521 C.3     1  UNL1        0.0005
     29 C          61.6044   85.8876    7.7052 C.3     1  UNL1        0.0005
     30 C          61.2075   86.0470    9.1430 C.3     1  UNL1        0.0088
     31 C          62.9397   84.5467   11.0535 C.2     1  UNL1        0.0532
     32 O          64.1225   83.6980   10.6916 O.co2   1  UNL1       -0.5491
     33 O          62.5371   84.6986   12.4904 O.co2   1  UNL1       -0.5491
@<TRIPOS>UNITY_ATOM_ATTR
32 1
charge -1
@<TRIPOS>BOND
     1    20    21    1
     2    21    19    1
     3    19    22    1
     4    22    23    1
     5    19    17    1
     6    17    18    1
     7    17    11    1
     8    11     1    1
     9     1     2   ar
    10     2     3   ar
    11     3     4   ar
    12     4     5   ar
    13     5     6   ar
    14     6    24    1
    15    24    25    1
    16    25    26    1
    17    26    31    1
    18    31    32   ar
    19    31    33   ar
    20    26    27    1
    21    27    28    1
    22    28    29    1
    23    29    30    1
    24     6     7   ar
    25     7     8   ar
    26     8     9   ar
    27     9    10   ar
    28    11    12    1
    29    12    13   ar
    30    13    14   ar
    31    14    15   ar
    32    15    16   ar
    33    10     1   ar
    34    16    12   ar
    35     9     4   ar
    36    30    26    1
@<TRIPOS>MOLECULE
*****
 33 36 0 0 0
SMALL
GASTEIGER

@<TRIPOS>ATOM
      1 C          65.2925   92.4306   11.7247 C.ar    1  UNL1       -0.0004
      2 C          64.4986   92.5778   10.4606 C.ar    1  UNL1       -0.0024
      3 C          63.4481   91.5653   10.1126 C.ar    1  UNL1       -0.0002
      4 C          63.1915   90.4056   11.0287 C.ar    1  UNL1        0.0030
      5 C          62.1409   89.3931   10.6806 C.ar    1  UNL1        0.0369
      6 C          61.8842   88.2334   11.5967 C.ar    1  UNL1        0.1386
      7 C          62.6781   88.0863   12.8609 C.ar    1  UNL1        0.0369
      8 C          63.7287   89.0988   13.2089 C.ar    1  UNL1        0.0031
      9 C          63.9853   90.2584   12.2928 C.ar    1  UNL1       -0.0001
     10 C          65.0359   91.2710   12.6408 C.ar    1  UNL1       -0.0024
     11 C          66.3431   93.4432   12.0727 C.3     1  UNL1        0.1240
     12 N          67.1688   93.2711   13.3131 N.ar    1  UNL1       -0.3045
     13 C          66.9037   93.9093   14.6444 C.ar    1  UNL1        0.0983
     14 C          67.9756   93.4633   15.5941 C.ar    1  UNL1        0.1193
     15 N          68.9034   92.5493   14.8498 N.ar    1  UNL1       -0.2223
     16 C          68.4047   92.4306   13.4401 C.ar    1  UNL1        0.1788
     17 C          66.5680   94.6277   11.1804 C.3     1  UNL1        0.0826
     18 C          66.0631   95.9802   11.5878 C.3     1  UNL1        0.0197
     19 N          67.2977   94.4598    9.8807 N.3     1  UNL1       -0.2720
     20 C          67.4488   96.5293    8.3171 C.3     1  UNL1        0.0188
     21 C          66.8384   95.2030    8.6613 C.3     1  UNL1        0.0722
     22 C          68.4866   93.5488    9.8002 C.3     1  UNL1        0.0722
     23 C          68.3238   92.1462    9.2941 C.3     1  UNL1        0.0188
     24 O          60.8337   87.2209   11.2487 O.3     1  UNL1       -0.4751
     25 C          60.1741   87.2570    9.9020 C.3     1  UNL1        0.2103
     26 C          60.7840   86.5178    8.7481 C.3     1  UNL1        0.0723
     27 C          61.1661   85.9160    7.4283 C.3     1  UNL1        0.0088
     28 C          62.3649   85.0415    7.6473 C.3     1  UNL1        0.0005
     29 C          62.7239   85.1029    9.1024 C.3     1  UNL1        0.0005
     30 C          61.7468   86.0154    9.7827 C.3     1  UNL1        0.0088
     31 C          59.6937   87.1748    7.9547 C.2     1  UNL1        0.0532
     32 O          59.7813   88.6358    7.6262 O.co2   1  UNL1       -0.5491
     33 O          58.5158   86.3708    7.4898 O.co2   1  UNL1       -0.5491
@<TRIPOS>UNITY_ATOM_ATTR
32 1
charge -1
@<TRIPOS>BOND
     1    20    21    1
     2    21    19    1
     3    19    22    1
     4    22    23    1
     5    19    17    1
     6    17    18    1
     7    17    11    1
     8    11     1    1
     9     1     2   ar
    10     2     3   ar
    11     3     4   ar
    12     4     5   ar
    13     5     6   ar
    14     6    24    1
    15    24    25    1
    16    25    26    1
    17    26    31    1
    18    31    32   ar
    19    31    33   ar
    20    26    27    1
    21    27    28    1
    22    28    29    1
    23    29    30    1
    24     6     7   ar
    25     7     8   ar
    26     8     9   ar
    27     9    10   ar
    28    11    12    1
    29    12    13   ar
    30    13    14   ar
    31    14    15   ar
    32    15    16   ar
    33    10     1   ar
    34    16    12   ar
    35     9     4   ar
    36    30    26    1
@<TRIPOS>MOLECULE
*****
 33 36 0 0 0
SMALL
GASTEIGER

@<TRIPOS>ATOM
      1 C          62.4256   88.0258   10.3686 C.ar    1  UNL1       -0.0004
      2 C          62.4232   89.4599    9.9291 C.ar    1  UNL1       -0.0024
      3 C          62.9227   90.5289   10.8552 C.ar    1  UNL1       -0.0002
      4 C          63.4246   90.1638   12.2207 C.ar    1  UNL1        0.0030
      5 C          63.9242   91.2328   13.1468 C.ar    1  UNL1        0.0369
      6 C          64.4261   90.8677   14.5124 C.ar    1  UNL1        0.1386
      7 C          64.4285   89.4334   14.9518 C.ar    1  UNL1        0.0369
      8 C          63.9290   88.3644   14.0257 C.ar    1  UNL1        0.0031
      9 C          63.4271   88.7296   12.6602 C.ar    1  UNL1       -0.0001
     10 C          62.9275   87.6606   11.7341 C.ar    1  UNL1       -0.0024
     11 C          61.9260   86.9567    9.4424 C.3     1  UNL1        0.1240
     12 N          60.6639   87.1713    8.6608 N.ar    1  UNL1       -0.3045
     13 C          60.0556   88.4981    8.3153 C.ar    1  UNL1        0.0983
     14 C          58.8042   88.2435    7.5284 C.ar    1  UNL1        0.1193
     15 N          58.6391   86.7593    7.3875 N.ar    1  UNL1       -0.2223
     16 C          59.7885   86.0966    8.0874 C.ar    1  UNL1        0.1788
     17 C          62.6886   85.6732    9.2980 C.3     1  UNL1        0.0826
     18 C          63.2003   85.2520    7.9523 C.3     1  UNL1        0.0197
     19 N          62.9397   84.8106   10.4993 N.3     1  UNL1       -0.2720
     20 C          62.4955   84.4250   13.0299 C.3     1  UNL1        0.0188
     21 C          62.0233   84.8900   11.6843 C.3     1  UNL1        0.0722
     22 C          64.1070   83.8688   10.5156 C.3     1  UNL1        0.0722
     23 C          63.8776   82.3887   10.4333 C.3     1  UNL1        0.0188
     24 O          64.9257   91.9367   15.4385 O.3     1  UNL1       -0.4751
     25 C          65.7891   93.0436   14.9099 C.3     1  UNL1        0.2103
     26 C          67.2561   92.8142   14.6974 C.3     1  UNL1        0.0723
     27 C          68.6557   92.6460   14.1849 C.3     1  UNL1        0.0088
     28 C          69.5364   92.2973   15.3480 C.3     1  UNL1        0.0005
     29 C          68.6811   92.2500   16.5793 C.3     1  UNL1        0.0005
     30 C          67.2718   92.5695   16.1772 C.3     1  UNL1        0.0088
     31 C          66.9337   93.1069   13.2620 C.2     1  UNL1        0.0532
     32 O          67.6171   92.3406   12.1685 O.co2   1  UNL1       -0.5491
     33 O          65.9278   94.1658   12.9202 O.co2   1  UNL1       -0.5491
@<TRIPOS>UNITY_ATOM_ATTR
32 1
charge -1
@<TRIPOS>BOND
     1    20    21    1
     2    21    19    1
     3    19    22    1
     4    22    23    1
     5    19    17    1
     6    17    18    1
     7    17    11    1
     8    11     1    1
     9     1     2   ar
    10     2     3   ar
    11     3     4   ar
    12     4     5   ar
    13     5     6   ar
    14     6    24    1
    15    24    25    1
    16    25    26    1
    17    26    31    1
    18    31    32   ar
    19    31    33   ar
    20    26    27    1
    21    27    28    1
    22    28    29    1
    23    29    30    1
    24     6     7   ar
    25     7     8   ar
    26     8     9   ar
    27     9    10   ar
    28    11    12    1
    29    12    13   ar
    30    13    14   ar
    31    14    15   ar
    32    15    16   ar
    33    10     1   ar
    34    16    12   ar
    35     9     4   ar
    36    30    26    1
@<TRIPOS>MOLECULE
*****
 33 36 0 0 0
SMALL
GASTEIGER

@<TRIPOS>ATOM
      1 C          62.3131   88.1951   10.7009 C.ar    1  UNL1       -0.0004
      2 C          62.3536   89.5189    9.9967 C.ar    1  UNL1       -0.0024
      3 C          62.9763   90.7068   10.6683 C.ar    1  UNL1       -0.0002
      4 C          63.5585   90.5709   12.0440 C.ar    1  UNL1        0.0030
      5 C          64.1812   91.7589   12.7155 C.ar    1  UNL1        0.0369
      6 C          64.7635   91.6231   14.0912 C.ar    1  UNL1        0.1386
      7 C          64.7230   90.2992   14.7954 C.ar    1  UNL1        0.0369
      8 C          64.1003   89.1112   14.1238 C.ar    1  UNL1        0.0031
      9 C          63.5181   89.2471   12.7481 C.ar    1  UNL1       -0.0001
     10 C          62.8954   88.0592   12.0766 C.ar    1  UNL1       -0.0024
     11 C          61.6904   87.0070   10.0293 C.3     1  UNL1        0.1240
     12 N          60.6024   87.2034    9.0155 N.ar    1  UNL1       -0.3045
     13 C          60.1090   88.5211    8.4957 C.ar    1  UNL1        0.0983
     14 C          59.0185   88.2487    7.5025 C.ar    1  UNL1        0.1193
     15 N          58.8379   86.7626    7.4084 N.ar    1  UNL1       -0.2223
     16 C          59.8168   86.1166    8.3435 C.ar    1  UNL1        0.1788
     17 C          62.1557   85.6227   10.3715 C.3     1  UNL1        0.0826
     18 C          61.8186   85.0267   11.7062 C.3     1  UNL1        0.0197
     19 N          62.9580   84.8344    9.3792 N.3     1  UNL1       -0.2720
     20 C          64.6120   83.3607   10.7366 C.3     1  UNL1        0.0188
     21 C          63.4888   83.4812    9.7497 C.3     1  UNL1        0.0722
     22 C          63.2294   85.3991    8.0163 C.3     1  UNL1        0.0722
     23 C          62.6191   84.7599    6.8044 C.3     1  UNL1        0.0188
     24 O          65.3861   92.8110   14.7628 O.3     1  UNL1       -0.4751
     25 C          66.5691   93.4906   14.1391 C.3     1  UNL1        0.2103
     26 C          67.5060   92.7120   13.2639 C.3     1  UNL1        0.0723
     27 C          68.5888   91.8687   12.6586 C.3     1  UNL1        0.0088
     28 C          68.3643   91.8200   11.1764 C.3     1  UNL1        0.0005
     29 C          67.1429   92.6332   10.8655 C.3     1  UNL1        0.0005
     30 C          66.6124   93.1845   12.1557 C.3     1  UNL1        0.0088
     31 C          68.2037   92.4023   14.5551 C.2     1  UNL1        0.0532
     32 O          67.9272   91.1108   15.2661 O.co2   1  UNL1       -0.5491
     33 O          69.1779   93.3842   15.1354 O.co2   1  UNL1       -0.5491
@<TRIPOS>UNITY_ATOM_ATTR
32 1
charge -1
@<TRIPOS>BOND
     1    20    21    1
     2    21    19    1
     3    19    22    1
     4    22    23    1
     5    19    17    1
     6    17    18    1
     7    17    11    1
     8    11     1    1
     9     1     2   ar
    10     2     3   ar
    11     3     4   ar
    12     4     5   ar
    13     5     6   ar
    14     6    24    1
    15    24    25    1
    16    25    26    1
    17    26    31    1
    18    31    32   ar
    19    31    33   ar
    20    26    27    1
    21    27    28    1
    22    28    29    1
    23    29    30    1
    24     6     7   ar
    25     7     8   ar
    26     8     9   ar
    27     9    10   ar
    28    11    12    1
    29    12    13   ar
    30    13    14   ar
    31    14    15   ar
    32    15    16   ar
    33    10     1   ar
    34    16    12   ar
    35     9     4   ar
    36    30    26    1
@<TRIPOS>MOLECULE
*****
 33 36 0 0 0
SMALL
GASTEIGER

@<TRIPOS>ATOM
      1 C          64.7363   90.7389   13.3164 C.ar    1  UNL1       -0.0004
      2 C          63.8046   90.6467   12.1445 C.ar    1  UNL1       -0.0024
      3 C          63.1226   89.3485   11.8291 C.ar    1  UNL1       -0.0002
      4 C          63.3722   88.1426   12.6855 C.ar    1  UNL1        0.0030
      5 C          62.6901   86.8444   12.3699 C.ar    1  UNL1        0.0369
      6 C          62.9398   85.6385   13.2263 C.ar    1  UNL1        0.1386
      7 C          63.8716   85.7308   14.3983 C.ar    1  UNL1        0.0369
      8 C          64.5536   87.0289   14.7138 C.ar    1  UNL1        0.0031
      9 C          64.3039   88.2349   13.8574 C.ar    1  UNL1       -0.0001
     10 C          64.9860   89.5330   14.1728 C.ar    1  UNL1       -0.0024
     11 C          65.4184   92.0371   13.6320 C.3     1  UNL1        0.1240
     12 N          65.5909   93.0733   12.5612 N.ar    1  UNL1       -0.3045
     13 C          66.2134   94.4268   12.7361 C.ar    1  UNL1        0.0983
     14 C          66.1785   95.1280   11.4105 C.ar    1  UNL1        0.1193
     15 N          65.5344   94.2078   10.4163 N.ar    1  UNL1       -0.2223
     16 C          65.1713   92.9380   11.1275 C.ar    1  UNL1        0.1788
     17 C          65.9279   92.2991   15.0182 C.3     1  UNL1        0.0826
     18 C          64.9696   92.3590   16.1707 C.3     1  UNL1        0.0197
     19 N          67.3958   92.5011   15.2521 N.3     1  UNL1       -0.2720
     20 C          68.7054   91.7025   13.1551 C.3     1  UNL1        0.0188
     21 C          68.3908   91.5761   14.6163 C.3     1  UNL1        0.0722
     22 C          67.8685   93.6282   16.1216 C.3     1  UNL1        0.0722
     23 C          69.2989   94.0755   16.0580 C.3     1  UNL1        0.0188
     24 O          62.2578   84.3404   12.9109 O.3     1  UNL1       -0.4751
     25 C          62.9102   83.3556   11.9864 C.3     1  UNL1        0.2103
     26 C          62.7883   81.8841   12.2508 C.3     1  UNL1        0.0723
     27 C          62.8181   80.3845   12.2423 C.3     1  UNL1        0.0088
     28 C          62.1356   79.9002   13.4872 C.3     1  UNL1        0.0005
     29 C          61.6839   81.1006   14.2650 C.3     1  UNL1        0.0005
     30 C          62.0873   82.3267   13.5009 C.3     1  UNL1        0.0088
     31 C          63.5147   81.7492   10.9454 C.2     1  UNL1        0.0532
     32 O          63.1513   80.6468    9.9953 O.co2   1  UNL1       -0.5491
     33 O          64.6046   82.7166   10.5902 O.co2   1  UNL1       -0.5491
@<TRIPOS>UNITY_ATOM_ATTR
32 1
charge -1
@<TRIPOS>BOND
     1    20    21    1
     2    21    19    1
     3    19    22    1
     4    22    23    1
     5    19    17    1
     6    17    18    1
     7    17    11    1
     8    11     1    1
     9     1     2   ar
    10     2     3   ar
    11     3     4   ar
    12     4     5   ar
    13     5     6   ar
    14     6    24    1
    15    24    25    1
    16    25    26    1
    17    26    31    1
    18    31    32   ar
    19    31    33   ar
    20    26    27    1
    21    27    28    1
    22    28    29    1
    23    29    30    1
    24     6     7   ar
    25     7     8   ar
    26     8     9   ar
    27     9    10   ar
    28    11    12    1
    29    12    13   ar
    30    13    14   ar
    31    14    15   ar
    32    15    16   ar
    33    10     1   ar
    34    16    12   ar
    35     9     4   ar
    36    30    26    1
@<TRIPOS>MOLECULE
*****
 33 36 0 0 0
SMALL
GASTEIGER

@<TRIPOS>ATOM
      1 C          62.5545   87.6592   10.7504 C.ar    1  UNL1       -0.0004
      2 C          62.5529   89.0002   10.0784 C.ar    1  UNL1       -0.0024
      3 C          63.0414   90.2102   10.8179 C.ar    1  UNL1       -0.0002
      4 C          63.5317   90.0793   12.2295 C.ar    1  UNL1        0.0030
      5 C          64.0202   91.2895   12.9690 C.ar    1  UNL1        0.0369
      6 C          64.5105   91.1586   14.3806 C.ar    1  UNL1        0.1386
      7 C          64.5121   89.8175   15.0526 C.ar    1  UNL1        0.0369
      8 C          64.0235   88.6075   14.3131 C.ar    1  UNL1        0.0031
      9 C          63.5333   88.7384   12.9015 C.ar    1  UNL1       -0.0001
     10 C          63.0448   87.5283   12.1620 C.ar    1  UNL1       -0.0024
     11 C          62.0660   86.4490   10.0109 C.3     1  UNL1        0.1240
     12 N          62.6598   85.1024   10.3009 N.ar    1  UNL1       -0.3045
     13 C          63.5945   84.3404    9.4089 C.ar    1  UNL1        0.0983
     14 C          63.9357   83.0485   10.0905 C.ar    1  UNL1        0.1193
     15 N          63.2117   83.0120   11.4037 N.ar    1  UNL1       -0.2223
     16 C          62.4232   84.2814   11.5337 C.ar    1  UNL1        0.1788
     17 C          60.9836   86.5854    8.9814 C.3     1  UNL1        0.0826
     18 C          61.0504   85.7880    7.7126 C.3     1  UNL1        0.0197
     19 N          59.8343   87.5192    9.2207 N.3     1  UNL1       -0.2720
     20 C          59.6289   89.1621    7.2185 C.3     1  UNL1        0.0188
     21 C          59.0541   88.0612    8.0598 C.3     1  UNL1        0.0722
     22 C          59.4652   87.9110   10.6208 C.3     1  UNL1        0.0722
     23 C          59.4391   89.3587   11.0123 C.3     1  UNL1        0.0188
     24 O          64.9990   92.3687   15.1201 O.3     1  UNL1       -0.4751
     25 C          66.0133   93.2753   14.4879 C.3     1  UNL1        0.2103
     26 C          67.4571   92.8710   14.4450 C.3     1  UNL1        0.0723
     27 C          68.8623   92.4834   14.0914 C.3     1  UNL1        0.0088
     28 C          69.6136   92.2484   15.3682 C.3     1  UNL1        0.0005
     29 C          68.6727   92.4907   16.5110 C.3     1  UNL1        0.0005
     30 C          67.3399   92.8755   15.9404 C.3     1  UNL1        0.0088
     31 C          67.2724   92.9510   12.9586 C.2     1  UNL1        0.0532
     32 O          66.2793   93.9130   12.3769 O.co2   1  UNL1       -0.5491
     33 O          68.0809   92.0692   12.0539 O.co2   1  UNL1       -0.5491
@<TRIPOS>UNITY_ATOM_ATTR
32 1
charge -1
@<TRIPOS>BOND
     1    20    21    1
     2    21    19    1
     3    19    22    1
     4    22    23    1
     5    19    17    1
     6    17    18    1
     7    17    11    1
     8    11     1    1
     9     1     2   ar
    10     2     3   ar
    11     3     4   ar
    12     4     5   ar
    13     5     6   ar
    14     6    24    1
    15    24    25    1
    16    25    26    1
    17    26    31    1
    18    31    32   ar
    19    31    33   ar
    20    26    27    1
    21    27    28    1
    22    28    29    1
    23    29    30    1
    24     6     7   ar
    25     7     8   ar
    26     8     9   ar
    27     9    10   ar
    28    11    12    1
    29    12    13   ar
    30    13    14   ar
    31    14    15   ar
    32    15    16   ar
    33    10     1   ar
    34    16    12   ar
    35     9     4   ar
    36    30    26    1
@<TRIPOS>MOLECULE
*****
 33 36 0 0 0
SMALL
GASTEIGER

@<TRIPOS>ATOM
      1 C          62.5387   87.7702   10.6964 C.ar    1  UNL1       -0.0004
      2 C          62.5755   89.0601    9.9318 C.ar    1  UNL1       -0.0024
      3 C          63.1285   90.2974   10.5745 C.ar    1  UNL1       -0.0002
      4 C          63.6447   90.2448   11.9819 C.ar    1  UNL1        0.0030
      5 C          64.1977   91.4822   12.6246 C.ar    1  UNL1        0.0369
      6 C          64.7140   91.4297   14.0320 C.ar    1  UNL1        0.1386
      7 C          64.6772   90.1397   14.7967 C.ar    1  UNL1        0.0369
      8 C          64.1242   88.9023   14.1539 C.ar    1  UNL1        0.0031
      9 C          63.6079   88.9549   12.7465 C.ar    1  UNL1       -0.0001
     10 C          63.0549   87.7176   12.1038 C.ar    1  UNL1       -0.0024
     11 C          61.9857   86.5327   10.0537 C.3     1  UNL1        0.1240
     12 N          62.5855   85.1937   10.3653 N.ar    1  UNL1       -0.3045
     13 C          62.3892   84.4124   11.6306 C.ar    1  UNL1        0.0983
     14 C          63.1694   83.1367   11.5136 C.ar    1  UNL1        0.1193
     15 N          63.8479   83.1294   10.1758 N.ar    1  UNL1       -0.2223
     16 C          63.4871   84.4007    9.4662 C.ar    1  UNL1        0.1788
     17 C          60.8329   86.6344    9.0995 C.3     1  UNL1        0.0826
     18 C          60.7660   85.7297    7.9048 C.3     1  UNL1        0.0197
     19 N          59.7468   87.6408    9.3398 N.3     1  UNL1       -0.2720
     20 C          59.5511   89.1139    7.2087 C.3     1  UNL1        0.0188
     21 C          58.9365   88.1591    8.1888 C.3     1  UNL1        0.0722
     22 C          59.4711   88.1288   10.7311 C.3     1  UNL1        0.0722
     23 C          59.5028   89.5983   11.0305 C.3     1  UNL1        0.0188
     24 O          65.2670   92.6670   14.6747 O.3     1  UNL1       -0.4751
     25 C          66.5424   93.2707   14.1657 C.3     1  UNL1        0.2103
     26 C          66.9834   93.0132   12.7553 C.3     1  UNL1        0.0723
     27 C          67.6283   92.5590   11.4794 C.3     1  UNL1        0.0088
     28 C          66.9596   93.2731   10.3424 C.3     1  UNL1        0.0005
     29 C          65.9015   94.1685   10.9154 C.3     1  UNL1        0.0005
     30 C          65.9162   94.0079   12.4068 C.3     1  UNL1        0.0088
     31 C          67.9584   92.0723   13.3987 C.2     1  UNL1        0.0532
     32 O          67.9065   91.8350   14.8790 O.co2   1  UNL1       -0.5491
     33 O          68.9854   91.3687   12.5620 O.co2   1  UNL1       -0.5491
@<TRIPOS>UNITY_ATOM_ATTR
32 1
charge -1
@<TRIPOS>BOND
     1    20    21    1
     2    21    19    1
     3    19    22    1
     4    22    23    1
     5    19    17    1
     6    17    18    1
     7    17    11    1
     8    11     1    1
     9     1     2   ar
    10     2     3   ar
    11     3     4   ar
    12     4     5   ar
    13     5     6   ar
    14     6    24    1
    15    24    25    1
    16    25    26    1
    17    26    31    1
    18    31    32   ar
    19    31    33   ar
    20    26    27    1
    21    27    28    1
    22    28    29    1
    23    29    30    1
    24     6     7   ar
    25     7     8   ar
    26     8     9   ar
    27     9    10   ar
    28    11    12    1
    29    12    13   ar
    30    13    14   ar
    31    14    15   ar
    32    15    16   ar
    33    10     1   ar
    34    16    12   ar
    35     9     4   ar
    36    30    26    1
@<TRIPOS>MOLECULE
*****
 33 36 0 0 0
SMALL
GASTEIGER

@<TRIPOS>ATOM
      1 C          63.3962   86.2648   12.4458 C.ar    1  UNL1       -0.0004
      2 C          64.0422   85.9701   13.7671 C.ar    1  UNL1       -0.0024
      3 C          64.4710   87.0965   14.6600 C.ar    1  UNL1       -0.0002
      4 C          64.2538   88.5175   14.2317 C.ar    1  UNL1        0.0030
      5 C          64.6827   89.6439   15.1247 C.ar    1  UNL1        0.0369
      6 C          64.4655   91.0650   14.6964 C.ar    1  UNL1        0.1386
      7 C          63.8195   91.3596   13.3750 C.ar    1  UNL1        0.0369
      8 C          63.3907   90.2333   12.4821 C.ar    1  UNL1        0.0031
      9 C          63.6078   88.8122   12.9104 C.ar    1  UNL1       -0.0001
     10 C          63.1790   87.6859   12.0175 C.ar    1  UNL1       -0.0024
     11 C          62.9674   85.1384   11.5528 C.3     1  UNL1        0.1240
     12 N          62.2358   85.4303   10.2762 N.ar    1  UNL1       -0.3045
     13 C          60.8670   86.0331   10.1624 C.ar    1  UNL1        0.0983
     14 C          60.5299   86.1459    8.7051 C.ar    1  UNL1        0.1193
     15 N          61.6903   85.6129    7.9183 N.ar    1  UNL1       -0.2223
     16 C          62.7447   85.1706    8.8892 C.ar    1  UNL1        0.1788
     17 C          63.2701   83.7203   11.9364 C.3     1  UNL1        0.0826
     18 C          64.4235   83.0015   11.3016 C.3     1  UNL1        0.0197
     19 N          62.4193   83.0209   12.9547 N.3     1  UNL1       -0.2720
     20 C          62.5920   83.4378   15.5133 C.3     1  UNL1        0.0188
     21 C          61.9693   83.7513   14.1852 C.3     1  UNL1        0.0722
     22 C          62.0186   81.5911   12.7427 C.3     1  UNL1        0.0722
     23 C          62.7408   80.4943   13.4675 C.3     1  UNL1        0.0188
     24 O          64.8943   92.1913   15.5893 O.3     1  UNL1       -0.4751
     25 C          65.8062   93.2600   15.0633 C.3     1  UNL1        0.2103
     26 C          67.2483   92.9488   14.7924 C.3     1  UNL1        0.0723
     27 C          68.6190   92.7207   14.2276 C.3     1  UNL1        0.0088
     28 C          69.5061   92.2474   15.3407 C.3     1  UNL1        0.0005
     29 C          68.6837   92.1830   16.5935 C.3     1  UNL1        0.0005
     30 C          67.2882   92.6165   16.2546 C.3     1  UNL1        0.0088
     31 C          66.9069   93.3461   13.3869 C.2     1  UNL1        0.0532
     32 O          67.2985   92.4609   12.2410 O.co2   1  UNL1       -0.5491
     33 O          66.1738   94.6287   13.1272 O.co2   1  UNL1       -0.5491
@<TRIPOS>UNITY_ATOM_ATTR
32 1
charge -1
@<TRIPOS>BOND
     1    20    21    1
     2    21    19    1
     3    19    22    1
     4    22    23    1
     5    19    17    1
     6    17    18    1
     7    17    11    1
     8    11     1    1
     9     1     2   ar
    10     2     3   ar
    11     3     4   ar
    12     4     5   ar
    13     5     6   ar
    14     6    24    1
    15    24    25    1
    16    25    26    1
    17    26    31    1
    18    31    32   ar
    19    31    33   ar
    20    26    27    1
    21    27    28    1
    22    28    29    1
    23    29    30    1
    24     6     7   ar
    25     7     8   ar
    26     8     9   ar
    27     9    10   ar
    28    11    12    1
    29    12    13   ar
    30    13    14   ar
    31    14    15   ar
    32    15    16   ar
    33    10     1   ar
    34    16    12   ar
    35     9     4   ar
    36    30    26    1
