@<TRIPOS>MOLECULE
*****
 26 28 0 0 0
SMALL
GASTEIGER

@<TRIPOS>ATOM
      1 C          64.0330   87.4615   14.3842 C.2     1  UNL1        0.2252
      2 O          63.5376   87.6094   12.9762 O.2     1  UNL1       -0.2750
      3 N          64.0051   88.6364   15.3164 N.am    1  UNL1       -0.3003
      4 H          64.3303   88.5393   16.2406 H       1  UNL1        0.1497
      5 C          64.5563   86.1387   14.8602 C.3     1  UNL1        0.1154
      6 C          63.3843   85.6525   16.4157 C.3     1  UNL1        0.0335
      7 C          63.6115   84.9959   15.0864 C.3     1  UNL1        0.1377
      8 C          64.0362   84.5782   13.7098 C.3     1  UNL1        0.0613
      9 C          63.3064   83.3143   13.3629 C.3     1  UNL1        0.1290
     10 C          62.5091   82.0605   13.1576 C.3     1  UNL1        0.0305
     11 C          62.6333   81.2946   11.8740 C.3     1  UNL1        0.0025
     12 C          63.5548   81.7825   10.7956 C.3     1  UNL1        0.0002
     13 C          64.3520   83.0363   11.0009 C.3     1  UNL1        0.0025
     14 C          64.2279   83.8022   12.2846 C.3     1  UNL1        0.0305
     15 O          62.4306   82.9510   14.5253 O.3     1  UNL1       -0.2256
     16 O          62.6191   83.9903   15.5905 O.3     1  UNL1       -0.2251
     17 C          63.4818   89.9591   14.8405 C.3     1  UNL1        0.1175
     18 C          64.3083   90.8043   13.9171 C.ar    1  UNL1        0.0103
     19 C          65.6375   91.3310   14.3706 C.ar    1  UNL1       -0.0014
     20 C          66.4640   92.1762   13.4473 C.ar    1  UNL1       -0.0002
     21 C          65.9612   92.4947   12.0704 C.ar    1  UNL1        0.0012
     22 C          64.6320   91.9680   11.6169 C.ar    1  UNL1        0.0138
     23 C          63.8055   91.1228   12.5403 C.ar    1  UNL1        0.0391
     24 N          62.4763   90.5961   12.0868 N.pl3   1  UNL1       -0.3572
     25 H          62.1463   90.8052   11.1831 H       1  UNL1        0.1423
     26 H          61.9339   90.0414   12.6928 H       1  UNL1        0.1423
@<TRIPOS>BOND
     1     6     7    1
     2     7     5    1
     3     5     1    1
     4     1     2    2
     5     1     3   am
     6     3    17    1
     7    17    18    1
     8    18    19   ar
     9    19    20   ar
    10    20    21   ar
    11    21    22   ar
    12    22    23   ar
    13    23    24    1
    14     7     8    1
    15     8     9    1
    16     9    10    1
    17    10    11    1
    18    11    12    1
    19    12    13    1
    20    13    14    1
    21     9    15    1
    22    15    16    1
    23    16     7    1
    24    23    18   ar
    25    14     9    1
    26     3     4    1
    27    24    25    1
    28    24    26    1
@<TRIPOS>MOLECULE
*****
 26 28 0 0 0
SMALL
GASTEIGER

@<TRIPOS>ATOM
      1 C          61.9963   85.9791   11.2031 C.2     1  UNL1        0.2252
      2 O          62.6380   85.3063   10.0262 O.2     1  UNL1       -0.2750
      3 N          62.3937   85.5922   12.5969 N.am    1  UNL1       -0.3003
      4 H          61.9725   86.0338   13.3694 H       1  UNL1        0.1497
      5 C          60.9571   87.0390   10.9865 C.3     1  UNL1        0.1154
      6 C          60.3922   87.8052    9.2192 C.3     1  UNL1        0.0335
      7 C          61.3205   88.3127   10.2825 C.3     1  UNL1        0.1377
      8 C          62.1728   88.5539   11.4930 C.3     1  UNL1        0.0613
      9 C          62.8689   89.8707   11.3150 C.3     1  UNL1        0.1290
     10 C          63.4911   91.1984   10.9987 C.3     1  UNL1        0.0305
     11 C          64.4423   91.8314   11.9706 C.3     1  UNL1        0.0025
     12 C          64.7712   91.1367   13.2587 C.3     1  UNL1        0.0002
     13 C          64.1490   89.8090   13.5749 C.3     1  UNL1        0.0025
     14 C          63.1979   89.1760   12.6031 C.3     1  UNL1        0.0305
     15 O          62.4468   90.4433    9.9943 O.3     1  UNL1       -0.2256
     16 O          61.4898   89.4804    9.3562 O.3     1  UNL1       -0.2251
     17 C          63.4328   84.5323   12.8135 C.3     1  UNL1        0.1175
     18 C          63.0247   83.0930   12.9219 C.ar    1  UNL1        0.0103
     19 C          62.3318   82.6009   14.1579 C.ar    1  UNL1       -0.0014
     20 C          61.9238   81.1615   14.2663 C.ar    1  UNL1       -0.0002
     21 C          62.2086   80.2143   13.1387 C.ar    1  UNL1        0.0012
     22 C          62.9015   80.7063   11.9028 C.ar    1  UNL1        0.0138
     23 C          63.3096   82.1457   11.7943 C.ar    1  UNL1        0.0391
     24 N          64.0024   82.6378   10.5583 N.pl3   1  UNL1       -0.3572
     25 H          64.1894   82.0160    9.8182 H       1  UNL1        0.1423
     26 H          64.2702   83.5825   10.4872 H       1  UNL1        0.1423
@<TRIPOS>BOND
     1     6     7    1
     2     7     5    1
     3     5     1    1
     4     1     2    2
     5     1     3   am
     6     3    17    1
     7    17    18    1
     8    18    19   ar
     9    19    20   ar
    10    20    21   ar
    11    21    22   ar
    12    22    23   ar
    13    23    24    1
    14     7     8    1
    15     8     9    1
    16     9    10    1
    17    10    11    1
    18    11    12    1
    19    12    13    1
    20    13    14    1
    21     9    15    1
    22    15    16    1
    23    16     7    1
    24    23    18   ar
    25    14     9    1
    26     3     4    1
    27    24    25    1
    28    24    26    1
@<TRIPOS>MOLECULE
*****
 26 28 0 0 0
SMALL
GASTEIGER

@<TRIPOS>ATOM
      1 C          64.1991   87.4890   14.2194 C.2     1  UNL1        0.2252
      2 O          64.5432   88.8570   14.7293 O.2     1  UNL1       -0.2750
      3 N          63.4366   87.3366   12.9366 N.am    1  UNL1       -0.3003
      4 H          63.2107   86.4387   12.6019 H       1  UNL1        0.1497
      5 C          64.6173   86.2733   14.9923 C.3     1  UNL1        0.1154
      6 C          63.4260   86.0266   16.5889 C.3     1  UNL1        0.0335
      7 C          63.6070   85.2198   15.3374 C.3     1  UNL1        0.1377
      8 C          63.9993   84.6333   14.0137 C.3     1  UNL1        0.0613
      9 C          63.1935   83.3858   13.8024 C.3     1  UNL1        0.1290
     10 C          62.3216   82.1673   13.7305 C.3     1  UNL1        0.0305
     11 C          62.3935   81.2631   12.5359 C.3     1  UNL1        0.0025
     12 C          63.3372   81.5774   11.4131 C.3     1  UNL1        0.0002
     13 C          64.2090   82.7958   11.4850 C.3     1  UNL1        0.0025
     14 C          64.1372   83.7000   12.6796 C.3     1  UNL1        0.0305
     15 O          62.3032   83.2014   14.9955 O.3     1  UNL1       -0.2256
     16 O          62.5588   84.3349   15.9442 O.3     1  UNL1       -0.2251
     17 C          63.0183   88.5522   12.1638 C.3     1  UNL1        0.1175
     18 C          62.0784   88.4161   11.0027 C.ar    1  UNL1        0.0103
     19 C          62.0847   87.1650   10.1753 C.ar    1  UNL1       -0.0014
     20 C          61.1448   87.0289    9.0143 C.ar    1  UNL1       -0.0002
     21 C          60.1986   88.1440    8.6807 C.ar    1  UNL1        0.0012
     22 C          60.1923   89.3951    9.5080 C.ar    1  UNL1        0.0138
     23 C          61.1322   89.5312   10.6691 C.ar    1  UNL1        0.0391
     24 N          61.1259   90.7823   11.4964 N.pl3   1  UNL1       -0.3572
     25 H          60.5049   91.5141   11.2774 H       1  UNL1        0.1423
     26 H          61.7428   90.8716   12.2585 H       1  UNL1        0.1423
@<TRIPOS>BOND
     1     6     7    1
     2     7     5    1
     3     5     1    1
     4     1     2    2
     5     1     3   am
     6     3    17    1
     7    17    18    1
     8    18    19   ar
     9    19    20   ar
    10    20    21   ar
    11    21    22   ar
    12    22    23   ar
    13    23    24    1
    14     7     8    1
    15     8     9    1
    16     9    10    1
    17    10    11    1
    18    11    12    1
    19    12    13    1
    20    13    14    1
    21     9    15    1
    22    15    16    1
    23    16     7    1
    24    23    18   ar
    25    14     9    1
    26     3     4    1
    27    24    25    1
    28    24    26    1
@<TRIPOS>MOLECULE
*****
 26 28 0 0 0
SMALL
GASTEIGER

@<TRIPOS>ATOM
      1 C          63.1308   87.5663   12.5467 C.2     1  UNL1        0.2252
      2 O          63.9198   87.9919   13.7492 O.2     1  UNL1       -0.2750
      3 N          62.7894   86.1193   12.3472 N.am    1  UNL1       -0.3003
      4 H          62.2715   85.8399   11.5579 H       1  UNL1        0.1497
      5 C          62.6831   88.5877   11.5435 C.3     1  UNL1        0.1154
      6 C          60.8937   89.4584   11.8074 C.3     1  UNL1        0.0335
      7 C          61.3710   88.4194   10.8364 C.3     1  UNL1        0.1377
      8 C          62.1226   87.4157   10.0133 C.3     1  UNL1        0.0613
      9 C          61.1752   86.8441    9.0004 C.3     1  UNL1        0.1290
     10 C          60.1182   86.3667    8.0492 C.3     1  UNL1        0.0305
     11 C          60.4498   85.3272    7.0200 C.3     1  UNL1        0.0025
     12 C          61.8383   84.7651    6.9419 C.3     1  UNL1        0.0002
     13 C          62.8952   85.2425    7.8931 C.3     1  UNL1        0.0025
     14 C          62.5637   86.2820    8.9223 C.3     1  UNL1        0.0305
     15 O          59.8381   87.4947    9.1976 O.3     1  UNL1       -0.2256
     16 O          59.9590   88.4683   10.3323 O.3     1  UNL1       -0.2251
     17 C          63.2371   85.0979   13.3504 C.3     1  UNL1        0.1175
     18 C          63.0809   83.6360   13.0532 C.ar    1  UNL1        0.0103
     19 C          63.1911   83.1418   11.6412 C.ar    1  UNL1       -0.0014
     20 C          63.0349   81.6799   11.3439 C.ar    1  UNL1       -0.0002
     21 C          62.7685   80.7122   12.4586 C.ar    1  UNL1        0.0012
     22 C          62.6583   81.2063   13.8705 C.ar    1  UNL1        0.0138
     23 C          62.8145   82.6683   14.1679 C.ar    1  UNL1        0.0391
     24 N          62.7043   83.1625   15.5797 N.pl3   1  UNL1       -0.3572
     25 H          62.5295   82.5273   16.3113 H       1  UNL1        0.1423
     26 H          62.8069   84.1220   15.7749 H       1  UNL1        0.1423
@<TRIPOS>BOND
     1     6     7    1
     2     7     5    1
     3     5     1    1
     4     1     2    2
     5     1     3   am
     6     3    17    1
     7    17    18    1
     8    18    19   ar
     9    19    20   ar
    10    20    21   ar
    11    21    22   ar
    12    22    23   ar
    13    23    24    1
    14     7     8    1
    15     8     9    1
    16     9    10    1
    17    10    11    1
    18    11    12    1
    19    12    13    1
    20    13    14    1
    21     9    15    1
    22    15    16    1
    23    16     7    1
    24    23    18   ar
    25    14     9    1
    26     3     4    1
    27    24    25    1
    28    24    26    1
@<TRIPOS>MOLECULE
*****
 26 28 0 0 0
SMALL
GASTEIGER

@<TRIPOS>ATOM
      1 C          60.8305   89.0873   11.1867 C.2     1  UNL1        0.2252
      2 O          59.7769   90.1061   11.5053 O.2     1  UNL1       -0.2750
      3 N          62.2768   89.4849   11.1668 N.am    1  UNL1       -0.3003
      4 H          62.9683   88.8162   10.9577 H       1  UNL1        0.1497
      5 C          60.4380   87.6706   10.8881 C.3     1  UNL1        0.1154
      6 C          60.3937   87.8479    8.8890 C.3     1  UNL1        0.0335
      7 C          61.1358   86.9131    9.7976 C.3     1  UNL1        0.1377
      8 C          61.7319   86.1367   10.9341 C.3     1  UNL1        0.0613
      9 C          62.6431   85.0946   10.3561 C.3     1  UNL1        0.1290
     10 C          63.5146   84.1083    9.6368 C.3     1  UNL1        0.0305
     11 C          64.3178   83.1093   10.4158 C.3     1  UNL1        0.0025
     12 C          64.2494   83.0966   11.9142 C.3     1  UNL1        0.0002
     13 C          63.3778   84.0829   12.6335 C.3     1  UNL1        0.0025
     14 C          62.5747   85.0819   11.8545 C.3     1  UNL1        0.0305
     15 O          62.6101   85.2271    8.8624 O.3     1  UNL1       -0.2256
     16 O          61.6785   86.3510    8.5171 O.3     1  UNL1       -0.2251
     17 C          62.6692   90.9015   11.4654 C.3     1  UNL1        0.1175
     18 C          63.8108   91.1830   12.3968 C.ar    1  UNL1        0.0103
     19 C          65.0086   91.9417   11.9073 C.ar    1  UNL1       -0.0014
     20 C          66.1502   92.2232   12.8387 C.ar    1  UNL1       -0.0002
     21 C          66.0939   91.7460   14.2597 C.ar    1  UNL1        0.0012
     22 C          64.8962   90.9874   14.7492 C.ar    1  UNL1        0.0138
     23 C          63.7545   90.7059   13.8178 C.ar    1  UNL1        0.0391
     24 N          62.5568   89.9472   14.3073 N.pl3   1  UNL1       -0.3572
     25 H          62.5199   89.6340   15.2399 H       1  UNL1        0.1423
     26 H          61.8075   89.7625   13.6960 H       1  UNL1        0.1423
@<TRIPOS>BOND
     1     6     7    1
     2     7     5    1
     3     5     1    1
     4     1     2    2
     5     1     3   am
     6     3    17    1
     7    17    18    1
     8    18    19   ar
     9    19    20   ar
    10    20    21   ar
    11    21    22   ar
    12    22    23   ar
    13    23    24    1
    14     7     8    1
    15     8     9    1
    16     9    10    1
    17    10    11    1
    18    11    12    1
    19    12    13    1
    20    13    14    1
    21     9    15    1
    22    15    16    1
    23    16     7    1
    24    23    18   ar
    25    14     9    1
    26     3     4    1
    27    24    25    1
    28    24    26    1
@<TRIPOS>MOLECULE
*****
 26 28 0 0 0
SMALL
GASTEIGER

@<TRIPOS>ATOM
      1 C          63.9706   87.7809   14.7293 C.2     1  UNL1        0.2252
      2 O          63.7413   88.6406   15.9368 O.2     1  UNL1       -0.2750
      3 N          63.6285   88.2990   13.3637 N.am    1  UNL1       -0.3003
      4 H          63.7790   87.7348   12.5712 H       1  UNL1        0.1497
      5 C          64.5419   86.4029   14.8872 C.3     1  UNL1        0.1154
      6 C          63.4448   85.9251   16.4989 C.3     1  UNL1        0.0335
      7 C          63.6350   85.2437   15.1762 C.3     1  UNL1        0.1377
      8 C          64.0149   84.8045   13.7932 C.3     1  UNL1        0.0613
      9 C          63.3029   83.5163   13.5039 C.3     1  UNL1        0.1290
     10 C          62.5290   82.2396   13.3585 C.3     1  UNL1        0.0305
     11 C          62.6208   81.4476   12.0880 C.3     1  UNL1        0.0025
     12 C          63.4865   81.9321   10.9630 C.3     1  UNL1        0.0002
     13 C          64.2604   83.2087   11.1084 C.3     1  UNL1        0.0025
     14 C          64.1686   84.0008   12.3789 C.3     1  UNL1        0.0305
     15 O          62.4831   83.1592   14.7082 O.3     1  UNL1       -0.2256
     16 O          62.6883   84.2268   15.7419 O.3     1  UNL1       -0.2251
     17 C          63.0572   89.6770   13.2059 C.3     1  UNL1        0.1175
     18 C          63.8681   90.7543   12.5488 C.ar    1  UNL1        0.0103
     19 C          63.6681   91.0621   11.0944 C.ar    1  UNL1       -0.0014
     20 C          64.4790   92.1395   10.4374 C.ar    1  UNL1       -0.0002
     21 C          65.4899   92.9090   11.2347 C.ar    1  UNL1        0.0012
     22 C          65.6899   92.6013   12.6890 C.ar    1  UNL1        0.0138
     23 C          64.8790   91.5239   13.3462 C.ar    1  UNL1        0.0391
     24 N          65.0791   91.2161   14.8005 N.pl3   1  UNL1       -0.3572
     25 H          65.7426   91.7212   15.3238 H       1  UNL1        0.1423
     26 H          64.5469   90.5090   15.2318 H       1  UNL1        0.1423
@<TRIPOS>BOND
     1     6     7    1
     2     7     5    1
     3     5     1    1
     4     1     2    2
     5     1     3   am
     6     3    17    1
     7    17    18    1
     8    18    19   ar
     9    19    20   ar
    10    20    21   ar
    11    21    22   ar
    12    22    23   ar
    13    23    24    1
    14     7     8    1
    15     8     9    1
    16     9    10    1
    17    10    11    1
    18    11    12    1
    19    12    13    1
    20    13    14    1
    21     9    15    1
    22    15    16    1
    23    16     7    1
    24    23    18   ar
    25    14     9    1
    26     3     4    1
    27    24    25    1
    28    24    26    1
@<TRIPOS>MOLECULE
*****
 26 28 0 0 0
SMALL
GASTEIGER

@<TRIPOS>ATOM
      1 C          62.1200   88.9808   11.6379 C.2     1  UNL1        0.2252
      2 O          63.1481   88.0726   12.2445 O.2     1  UNL1       -0.2750
      3 N          60.9617   88.4023   10.8804 N.am    1  UNL1       -0.3003
      4 H          60.2869   88.9985   10.4822 H       1  UNL1        0.1497
      5 C          62.2501   90.4676   11.7889 C.3     1  UNL1        0.1154
      6 C          62.8688   90.9994    9.9548 C.3     1  UNL1        0.0335
      7 C          63.4892   91.1643   11.3104 C.3     1  UNL1        0.1377
      8 C          63.8506   91.1836   12.7661 C.3     1  UNL1        0.0613
      9 C          65.1835   91.8579   12.9040 C.3     1  UNL1        0.1290
     10 C          66.5145   92.5492   12.8857 C.3     1  UNL1        0.0305
     11 C          67.2549   92.7847   14.1688 C.3     1  UNL1        0.0025
     12 C          66.6644   92.3288   15.4701 C.3     1  UNL1        0.0002
     13 C          65.3333   91.6375   15.4883 C.3     1  UNL1        0.0025
     14 C          64.5929   91.4020   14.2053 C.3     1  UNL1        0.0305
     15 O          65.6458   92.2553   11.5335 O.3     1  UNL1       -0.2256
     16 O          64.5987   91.8267   10.5485 O.3     1  UNL1       -0.2251
     17 C          60.8317   86.9156   10.7294 C.3     1  UNL1        0.1175
     18 C          61.2724   86.2493    9.4599 C.ar    1  UNL1        0.0103
     19 C          62.6486   85.6608    9.3603 C.ar    1  UNL1       -0.0014
     20 C          63.0893   84.9945    8.0908 C.ar    1  UNL1       -0.0002
     21 C          62.1538   84.9166    6.9208 C.ar    1  UNL1        0.0012
     22 C          60.7777   85.5050    7.0203 C.ar    1  UNL1        0.0138
     23 C          60.3370   86.1714    8.2899 C.ar    1  UNL1        0.0391
     24 N          58.9609   86.7599    8.3894 N.pl3   1  UNL1       -0.3572
     25 H          58.3469   86.7088    7.6215 H       1  UNL1        0.1423
     26 H          58.6716   87.1972    9.2227 H       1  UNL1        0.1423
@<TRIPOS>BOND
     1     6     7    1
     2     7     5    1
     3     5     1    1
     4     1     2    2
     5     1     3   am
     6     3    17    1
     7    17    18    1
     8    18    19   ar
     9    19    20   ar
    10    20    21   ar
    11    21    22   ar
    12    22    23   ar
    13    23    24    1
    14     7     8    1
    15     8     9    1
    16     9    10    1
    17    10    11    1
    18    11    12    1
    19    12    13    1
    20    13    14    1
    21     9    15    1
    22    15    16    1
    23    16     7    1
    24    23    18   ar
    25    14     9    1
    26     3     4    1
    27    24    25    1
    28    24    26    1
@<TRIPOS>MOLECULE
*****
 26 28 0 0 0
SMALL
GASTEIGER

@<TRIPOS>ATOM
      1 C          63.9672   89.7065   13.3480 C.2     1  UNL1        0.2252
      2 O          64.3245   91.0658   12.8244 O.2     1  UNL1       -0.2750
      3 N          63.0324   88.8259   12.5728 N.am    1  UNL1       -0.3003
      4 H          62.7979   87.9337   12.9165 H       1  UNL1        0.1497
      5 C          64.5447   89.2274   14.6470 C.3     1  UNL1        0.1154
      6 C          63.3900   89.7728   16.1958 C.3     1  UNL1        0.0335
      7 C          63.6980   88.4327   15.5964 C.3     1  UNL1        0.1377
      8 C          64.1830   87.2588   14.7985 C.3     1  UNL1        0.0613
      9 C          63.5717   86.0186   15.3800 C.3     1  UNL1        0.1290
     10 C          62.8896   84.8721   16.0659 C.3     1  UNL1        0.0305
     11 C          63.1035   83.4706   15.5761 C.3     1  UNL1        0.0025
     12 C          63.9996   83.2155   14.4005 C.3     1  UNL1        0.0002
     13 C          64.6816   84.3620   13.7146 C.3     1  UNL1        0.0025
     14 C          64.4677   85.7635   14.2044 C.3     1  UNL1        0.0305
     15 O          62.7088   86.4260   16.5374 O.3     1  UNL1       -0.2256
     16 O          62.7869   87.9181   16.6711 O.3     1  UNL1       -0.2251
     17 C          62.4549   89.3050   11.2740 C.3     1  UNL1        0.1175
     18 C          61.7821   88.3345   10.3491 C.ar    1  UNL1        0.0103
     19 C          62.2126   86.8978   10.3271 C.ar    1  UNL1       -0.0014
     20 C          61.5398   85.9273    9.4022 C.ar    1  UNL1       -0.0002
     21 C          60.4365   86.3935    8.4993 C.ar    1  UNL1        0.0012
     22 C          60.0060   87.8301    8.5212 C.ar    1  UNL1        0.0138
     23 C          60.6788   88.8007    9.4462 C.ar    1  UNL1        0.0391
     24 N          60.2482   90.2373    9.4681 N.pl3   1  UNL1       -0.3572
     25 H          59.5241   90.5433    8.8755 H       1  UNL1        0.1423
     26 H          60.6898   90.8743   10.0752 H       1  UNL1        0.1423
@<TRIPOS>BOND
     1     6     7    1
     2     7     5    1
     3     5     1    1
     4     1     2    2
     5     1     3   am
     6     3    17    1
     7    17    18    1
     8    18    19   ar
     9    19    20   ar
    10    20    21   ar
    11    21    22   ar
    12    22    23   ar
    13    23    24    1
    14     7     8    1
    15     8     9    1
    16     9    10    1
    17    10    11    1
    18    11    12    1
    19    12    13    1
    20    13    14    1
    21     9    15    1
    22    15    16    1
    23    16     7    1
    24    23    18   ar
    25    14     9    1
    26     3     4    1
    27    24    25    1
    28    24    26    1
@<TRIPOS>MOLECULE
*****
 26 28 0 0 0
SMALL
GASTEIGER

@<TRIPOS>ATOM
      1 C          63.6678   86.8274   13.2945 C.2     1  UNL1        0.2252
      2 O          63.7485   88.3204   13.4135 O.2     1  UNL1       -0.2750
      3 N          62.9146   86.2053   12.1561 N.am    1  UNL1       -0.3003
      4 H          62.8616   85.2254   12.0780 H       1  UNL1        0.1497
      5 C          64.3403   85.9563   14.3139 C.3     1  UNL1        0.1154
      6 C          63.5590   85.8899   16.1618 C.3     1  UNL1        0.0335
      7 C          63.5544   84.9010   15.0340 C.3     1  UNL1        0.1377
      8 C          63.7141   84.1327   13.7557 C.3     1  UNL1        0.0613
      9 C          63.0279   82.8091   13.9215 C.3     1  UNL1        0.1290
     10 C          62.3046   81.5324   14.2325 C.3     1  UNL1        0.0305
     11 C          62.2175   80.4488   13.1990 C.3     1  UNL1        0.0025
     12 C          62.8537   80.6420   11.8544 C.3     1  UNL1        0.0002
     13 C          63.5770   81.9187   11.5433 C.3     1  UNL1        0.0025
     14 C          63.6641   83.0022   12.5769 C.3     1  UNL1        0.0305
     15 O          62.4441   82.7595   15.3023 O.3     1  UNL1       -0.2256
     16 O          62.7695   84.0524   15.9900 O.3     1  UNL1       -0.2251
     17 C          62.2422   87.0764   11.1368 C.3     1  UNL1        0.1175
     18 C          61.8592   86.5100    9.8017 C.ar    1  UNL1        0.0103
     19 C          62.8342   85.6632    9.0387 C.ar    1  UNL1       -0.0014
     20 C          62.4512   85.0967    7.7036 C.ar    1  UNL1       -0.0002
     21 C          61.0932   85.3771    7.1316 C.ar    1  UNL1        0.0012
     22 C          60.1182   86.2238    7.8946 C.ar    1  UNL1        0.0138
     23 C          60.5012   86.7903    9.2298 C.ar    1  UNL1        0.0391
     24 N          59.5262   87.6370    9.9928 N.pl3   1  UNL1       -0.3572
     25 H          58.6349   87.8210    9.6173 H       1  UNL1        0.1423
     26 H          59.7775   88.0088   10.8690 H       1  UNL1        0.1423
@<TRIPOS>BOND
     1     6     7    1
     2     7     5    1
     3     5     1    1
     4     1     2    2
     5     1     3   am
     6     3    17    1
     7    17    18    1
     8    18    19   ar
     9    19    20   ar
    10    20    21   ar
    11    21    22   ar
    12    22    23   ar
    13    23    24    1
    14     7     8    1
    15     8     9    1
    16     9    10    1
    17    10    11    1
    18    11    12    1
    19    12    13    1
    20    13    14    1
    21     9    15    1
    22    15    16    1
    23    16     7    1
    24    23    18   ar
    25    14     9    1
    26     3     4    1
    27    24    25    1
    28    24    26    1
