@<TRIPOS>MOLECULE
*****
 34 38 0 0 0
SMALL
GASTEIGER

@<TRIPOS>ATOM
      1 C          62.7913   86.9327   11.9035 C.2     1  UNL1        0.2506
      2 O          63.5949   87.5571   13.0055 O.2     1  UNL1       -0.2699
      3 N          61.7782   87.7501   11.1583 N.am    1  UNL1       -0.2723
      4 C          60.9746   87.1257   10.0563 C.3     1  UNL1        0.1257
      5 C          59.9614   87.9431    9.3111 C.3     1  UNL1        0.1637
      6 O          59.7518   89.3849    9.6679 O.3     1  UNL1       -0.3502
      7 C          60.5553   90.0093   10.7699 C.3     1  UNL1        0.1622
      8 C          61.5686   89.1919   11.5151 C.3     1  UNL1        0.1097
      9 C          63.4202   82.6074   10.8330 C.ar    1  UNL1        0.1403
     10 C          63.2546   83.6316    9.7498 C.ar    1  UNL1        0.0371
     11 C          63.0449   85.0734   10.1066 C.ar    1  UNL1        0.0092
     12 C          63.0010   85.4909   11.5466 C.ar    1  UNL1        0.0731
     13 C          63.1666   84.4666   12.6298 C.ar    1  UNL1        0.1102
     14 C          63.3763   83.0249   12.2730 C.ar    1  UNL1        0.0579
     15 N          63.1227   84.8841   14.0699 N.ar    1  UNL1       -0.1476
     16 N          61.9313   84.7972   14.9771 N.ar    1  UNL1       -0.1447
     17 C          62.3346   85.3211   16.3235 C.ar    1  UNL1        0.1446
     18 C          63.7754   85.7319   16.2484 C.ar    1  UNL1        0.1446
     19 N          64.2624   85.4617   14.8557 N.ar    1  UNL1       -0.1447
     20 C          62.9024   80.0927   11.2309 C.3     1  UNL1        0.2525
     21 O          63.6299   81.1656   10.4761 O.3     1  UNL1       -0.4714
     22 C          62.3721   89.8162   12.6171 C.3     1  UNL1        0.0510
     23 C          63.5165   90.7281   12.2869 C.ar    1  UNL1        0.0086
     24 C          64.5169   91.0892   13.3446 C.ar    1  UNL1        0.0189
     25 C          65.6613   92.0011   13.0144 C.ar    1  UNL1        0.1027
     26 C          65.8052   92.5517   11.6266 C.ar    1  UNL1        0.0232
     27 C          64.8047   92.1905   10.5690 C.ar    1  UNL1        0.0309
     28 C          63.6604   91.2787   10.8991 C.ar    1  UNL1        0.1363
     29 F          62.6599   90.9175    9.8414 F       1  UNL1       -0.2045
     30 N          66.6618   92.3622   14.0721 N.ar    1  UNL1       -0.1478
     31 N          66.3469   92.7740   15.4797 N.ar    1  UNL1       -0.1447
     32 C          67.6432   93.0413   16.1855 C.ar    1  UNL1        0.1446
     33 C          68.7593   92.7947   15.2140 C.ar    1  UNL1        0.1446
     34 N          68.1527   92.3751   13.9079 N.ar    1  UNL1       -0.1447
@<TRIPOS>BOND
     1    20    21    1
     2    21     9    1
     3     9    10   ar
     4    10    11   ar
     5    11    12   ar
     6    12     1    1
     7     1     2    2
     8     1     3   am
     9     3     4    1
    10     4     5    1
    11     5     6    1
    12     6     7    1
    13     7     8    1
    14     8    22    1
    15    22    23    1
    16    23    24   ar
    17    24    25   ar
    18    25    30    1
    19    30    31   ar
    20    31    32   ar
    21    32    33   ar
    22    33    34   ar
    23    25    26   ar
    24    26    27   ar
    25    27    28   ar
    26    28    29    1
    27    12    13   ar
    28    13    15    1
    29    15    16   ar
    30    16    17   ar
    31    17    18   ar
    32    18    19   ar
    33    13    14   ar
    34    14     9   ar
    35     8     3    1
    36    28    23   ar
    37    19    15   ar
    38    34    30   ar
@<TRIPOS>MOLECULE
*****
 34 38 0 0 0
SMALL
GASTEIGER

@<TRIPOS>ATOM
      1 C          63.2581   87.1142   12.8305 C.2     1  UNL1        0.2506
      2 O          63.8913   87.5247   14.1268 O.2     1  UNL1       -0.2699
      3 N          62.7269   88.1568   11.8920 N.am    1  UNL1       -0.2723
      4 C          62.0937   87.7464   10.5956 C.3     1  UNL1        0.1257
      5 C          61.5625   88.7890    9.6572 C.3     1  UNL1        0.1637
      6 O          61.6644   90.2421   10.0151 O.3     1  UNL1       -0.3502
      7 C          62.2975   90.6526   11.3115 C.3     1  UNL1        0.1622
      8 C          62.8288   89.6099   12.2500 C.3     1  UNL1        0.1097
      9 C          62.9524   82.7549   11.7567 C.ar    1  UNL1        0.1403
     10 C          63.1037   83.7846   10.6765 C.ar    1  UNL1        0.0371
     11 C          63.2056   85.2377   11.0344 C.ar    1  UNL1        0.0092
     12 C          63.1562   85.6611   12.4725 C.ar    1  UNL1        0.0731
     13 C          63.0050   84.6314   13.5527 C.ar    1  UNL1        0.1102
     14 C          62.9031   83.1783   13.1948 C.ar    1  UNL1        0.0579
     15 N          62.9556   85.0548   14.9909 N.ar    1  UNL1       -0.1476
     16 N          64.1393   85.3374   15.8679 N.ar    1  UNL1       -0.1447
     17 C          63.6292   85.7272   17.2236 C.ar    1  UNL1        0.1446
     18 C          62.1303   85.6855   17.1844 C.ar    1  UNL1        0.1446
     19 N          61.7140   85.2700   15.8046 N.ar    1  UNL1       -0.1447
     20 C          62.6973   80.2723   12.4788 C.3     1  UNL1        0.2525
     21 O          62.8505   81.3018   11.3987 O.3     1  UNL1       -0.4714
     22 C          63.4619   90.0204   13.5463 C.3     1  UNL1        0.0510
     23 C          64.5372   91.0662   13.5578 C.ar    1  UNL1        0.0086
     24 C          65.1134   91.5637   12.2654 C.ar    1  UNL1        0.0189
     25 C          66.1886   92.6096   12.2770 C.ar    1  UNL1        0.1027
     26 C          66.6877   93.1578   13.5809 C.ar    1  UNL1        0.0232
     27 C          66.1115   92.6603   14.8733 C.ar    1  UNL1        0.0309
     28 C          65.0362   91.6145   14.8618 C.ar    1  UNL1        0.1363
     29 F          64.4600   91.1169   16.1543 F       1  UNL1       -0.2045
     30 N          66.7649   93.1071   10.9844 N.ar    1  UNL1       -0.1478
     31 N          67.9555   92.5366   10.2724 N.ar    1  UNL1       -0.1447
     32 C          68.1781   93.3393    9.0250 C.ar    1  UNL1        0.1446
     33 C          67.1250   94.4060    8.9661 C.ar    1  UNL1        0.1446
     34 N          66.2516   94.2624   10.1771 N.ar    1  UNL1       -0.1447
@<TRIPOS>BOND
     1    20    21    1
     2    21     9    1
     3     9    10   ar
     4    10    11   ar
     5    11    12   ar
     6    12     1    1
     7     1     2    2
     8     1     3   am
     9     3     4    1
    10     4     5    1
    11     5     6    1
    12     6     7    1
    13     7     8    1
    14     8    22    1
    15    22    23    1
    16    23    24   ar
    17    24    25   ar
    18    25    30    1
    19    30    31   ar
    20    31    32   ar
    21    32    33   ar
    22    33    34   ar
    23    25    26   ar
    24    26    27   ar
    25    27    28   ar
    26    28    29    1
    27    12    13   ar
    28    13    15    1
    29    15    16   ar
    30    16    17   ar
    31    17    18   ar
    32    18    19   ar
    33    13    14   ar
    34    14     9   ar
    35     8     3    1
    36    28    23   ar
    37    19    15   ar
    38    34    30   ar
@<TRIPOS>MOLECULE
*****
 34 38 0 0 0
SMALL
GASTEIGER

@<TRIPOS>ATOM
      1 C          63.4718   87.5002   13.1849 C.2     1  UNL1        0.2506
      2 O          63.4705   88.1578   11.8368 O.2     1  UNL1       -0.2699
      3 N          63.3771   88.3357   14.4270 N.am    1  UNL1       -0.2723
      4 C          63.3783   87.6781   15.7753 C.3     1  UNL1        0.1257
      5 C          63.2836   88.5137   17.0174 C.3     1  UNL1        0.1637
      6 O          63.1876   90.0068   16.9113 O.3     1  UNL1       -0.3502
      7 C          63.1864   90.6644   15.5632 C.3     1  UNL1        0.1622
      8 C          63.2811   89.8289   14.3210 C.3     1  UNL1        0.1097
      9 C          63.7597   83.0207   13.5030 C.ar    1  UNL1        0.1403
     10 C          64.4484   83.8901   14.5128 C.ar    1  UNL1        0.0371
     11 C          64.3524   85.3833   14.4068 C.ar    1  UNL1        0.0092
     12 C          63.5678   86.0070   13.2910 C.ar    1  UNL1        0.0731
     13 C          62.8791   85.1376   12.2811 C.ar    1  UNL1        0.1102
     14 C          62.9750   83.6445   12.3872 C.ar    1  UNL1        0.0579
     15 N          62.0944   85.7614   11.1652 N.ar    1  UNL1       -0.1476
     16 N          60.8774   86.6249   11.3184 N.ar    1  UNL1       -0.1447
     17 C          60.4198   87.0284    9.9481 C.ar    1  UNL1        0.1446
     18 C          61.3539   86.4141    8.9480 C.ar    1  UNL1        0.1446
     19 N          62.3888   85.6311    9.7002 N.ar    1  UNL1       -0.1447
     20 C          62.7639   80.6642   13.0498 C.3     1  UNL1        0.2525
     21 O          63.8557   81.5275   13.6090 O.3     1  UNL1       -0.4714
     22 C          63.2798   90.4865   12.9729 C.3     1  UNL1        0.0510
     23 C          64.4232   91.3689   12.5678 C.ar    1  UNL1        0.0086
     24 C          65.4848   91.7263   13.5653 C.ar    1  UNL1        0.0189
     25 C          66.6282   92.6086   13.1602 C.ar    1  UNL1        0.1027
     26 C          66.7100   93.1336   11.7575 C.ar    1  UNL1        0.0232
     27 C          65.6483   92.7762   10.7599 C.ar    1  UNL1        0.0309
     28 C          64.5050   91.8939   11.1651 C.ar    1  UNL1        0.1363
     29 F          63.4433   91.5365   10.1674 F       1  UNL1       -0.2045
     30 N          67.6898   92.9660   14.1579 N.ar    1  UNL1       -0.1478
     31 N          67.5218   93.8810   15.3345 N.ar    1  UNL1       -0.1447
     32 C          68.8340   93.9516   16.0579 C.ar    1  UNL1        0.1446
     33 C          69.8130   93.0802   15.3283 C.ar    1  UNL1        0.1446
     34 N          69.1058   92.4711   14.1540 N.ar    1  UNL1       -0.1447
@<TRIPOS>BOND
     1    20    21    1
     2    21     9    1
     3     9    10   ar
     4    10    11   ar
     5    11    12   ar
     6    12     1    1
     7     1     2    2
     8     1     3   am
     9     3     4    1
    10     4     5    1
    11     5     6    1
    12     6     7    1
    13     7     8    1
    14     8    22    1
    15    22    23    1
    16    23    24   ar
    17    24    25   ar
    18    25    30    1
    19    30    31   ar
    20    31    32   ar
    21    32    33   ar
    22    33    34   ar
    23    25    26   ar
    24    26    27   ar
    25    27    28   ar
    26    28    29    1
    27    12    13   ar
    28    13    15    1
    29    15    16   ar
    30    16    17   ar
    31    17    18   ar
    32    18    19   ar
    33    13    14   ar
    34    14     9   ar
    35     8     3    1
    36    28    23   ar
    37    19    15   ar
    38    34    30   ar
@<TRIPOS>MOLECULE
*****
 34 38 0 0 0
SMALL
GASTEIGER

@<TRIPOS>ATOM
      1 C          63.5248   87.5413   13.4002 C.2     1  UNL1        0.2506
      2 O          63.6230   88.6208   12.3634 O.2     1  UNL1       -0.2699
      3 N          63.4071   87.9034   14.8510 N.am    1  UNL1       -0.2723
      4 C          63.3088   86.8238   15.8879 C.3     1  UNL1        0.1257
      5 C          63.1911   87.1859   17.3387 C.3     1  UNL1        0.1637
      6 O          63.1717   88.6275   17.7528 O.3     1  UNL1       -0.3502
      7 C          63.2700   89.7070   16.7160 C.3     1  UNL1        0.1622
      8 C          63.3877   89.3450   15.2651 C.3     1  UNL1        0.1097
      9 C          63.5830   83.2165   12.1580 C.ar    1  UNL1        0.1403
     10 C          64.4089   83.6732   13.3239 C.ar    1  UNL1        0.0371
     11 C          64.3895   85.1147   13.7379 C.ar    1  UNL1        0.0092
     12 C          63.5442   86.0997   12.9861 C.ar    1  UNL1        0.0731
     13 C          62.7182   85.6430   11.8203 C.ar    1  UNL1        0.1102
     14 C          62.7377   84.2014   11.4062 C.ar    1  UNL1        0.0579
     15 N          61.8728   86.6280   11.0684 N.ar    1  UNL1       -0.1476
     16 N          60.6275   87.2908   11.5781 N.ar    1  UNL1       -0.1447
     17 C          60.1093   88.1955   10.4996 C.ar    1  UNL1        0.1446
     18 C          61.0345   88.0917    9.3234 C.ar    1  UNL1        0.1446
     19 N          62.1244   87.1230    9.6750 N.ar    1  UNL1       -0.1447
     20 C          62.8451   80.7552   12.5418 C.3     1  UNL1        0.2525
     21 O          63.6024   81.7749   11.7440 O.3     1  UNL1       -0.4714
     22 C          63.4859   90.4245   14.2283 C.3     1  UNL1        0.0510
     23 C          64.7044   91.2973   14.1674 C.ar    1  UNL1        0.0086
     24 C          65.3722   91.5621   12.8507 C.ar    1  UNL1        0.0189
     25 C          66.5906   92.4349   12.7898 C.ar    1  UNL1        0.1027
     26 C          67.1412   93.0428   14.0457 C.ar    1  UNL1        0.0232
     27 C          66.4734   92.7780   15.3624 C.ar    1  UNL1        0.0309
     28 C          65.2549   91.9052   15.4233 C.ar    1  UNL1        0.1363
     29 F          64.5871   91.6403   16.7401 F       1  UNL1       -0.2045
     30 N          67.2584   92.6998   11.4730 N.ar    1  UNL1       -0.1478
     31 N          66.9301   93.8164   10.5267 N.ar    1  UNL1       -0.1447
     32 C          67.8405   93.7013    9.3402 C.ar    1  UNL1        0.1446
     33 C          68.7315   92.5135    9.5532 C.ar    1  UNL1        0.1446
     34 N          68.3718   91.8946   10.8713 N.ar    1  UNL1       -0.1447
@<TRIPOS>BOND
     1    20    21    1
     2    21     9    1
     3     9    10   ar
     4    10    11   ar
     5    11    12   ar
     6    12     1    1
     7     1     2    2
     8     1     3   am
     9     3     4    1
    10     4     5    1
    11     5     6    1
    12     6     7    1
    13     7     8    1
    14     8    22    1
    15    22    23    1
    16    23    24   ar
    17    24    25   ar
    18    25    30    1
    19    30    31   ar
    20    31    32   ar
    21    32    33   ar
    22    33    34   ar
    23    25    26   ar
    24    26    27   ar
    25    27    28   ar
    26    28    29    1
    27    12    13   ar
    28    13    15    1
    29    15    16   ar
    30    16    17   ar
    31    17    18   ar
    32    18    19   ar
    33    13    14   ar
    34    14     9   ar
    35     8     3    1
    36    28    23   ar
    37    19    15   ar
    38    34    30   ar
@<TRIPOS>MOLECULE
*****
 34 38 0 0 0
SMALL
GASTEIGER

@<TRIPOS>ATOM
      1 C          62.6393   88.7202   11.5977 C.2     1  UNL1        0.2506
      2 O          62.5126   90.2143   11.5581 O.2     1  UNL1       -0.2699
      3 N          63.3261   88.0562   12.7542 N.am    1  UNL1       -0.2723
      4 C          63.4528   86.5621   12.7938 C.3     1  UNL1        0.1257
      5 C          64.1396   85.8981   13.9503 C.3     1  UNL1        0.1637
      6 O          64.6996   86.7282   15.0671 O.3     1  UNL1       -0.3502
      7 C          64.5730   88.2223   15.0275 C.3     1  UNL1        0.1622
      8 C          63.8862   88.8863   13.8710 C.3     1  UNL1        0.1097
      9 C          60.9591   86.2299    8.2473 C.ar    1  UNL1        0.1403
     10 C          62.4116   86.1226    8.6060 C.ar    1  UNL1        0.0371
     11 C          62.9717   86.9527    9.7228 C.ar    1  UNL1        0.0092
     12 C          62.0793   87.8901   10.4809 C.ar    1  UNL1        0.0731
     13 C          60.6268   87.9975   10.1221 C.ar    1  UNL1        0.1102
     14 C          60.0667   87.1674    9.0053 C.ar    1  UNL1        0.0579
     15 N          59.7343   88.9350   10.8802 N.ar    1  UNL1       -0.1476
     16 N          59.5005   90.3818   10.5604 N.ar    1  UNL1       -0.1447
     17 C          58.5407   90.9313   11.5737 C.ar    1  UNL1        0.1446
     18 C          58.1813   89.8241   12.5198 C.ar    1  UNL1        0.1446
     19 N          58.9190   88.5904   12.0912 N.ar    1  UNL1       -0.1447
     20 C          61.3043   84.5120    6.3291 C.3     1  UNL1        0.2525
     21 O          60.3991   85.3999    7.1305 O.3     1  UNL1       -0.4714
     22 C          63.7595   90.3804   13.8313 C.3     1  UNL1        0.0510
     23 C          64.9905   91.2372   13.8112 C.ar    1  UNL1        0.0086
     24 C          65.6265   91.6057   12.5036 C.ar    1  UNL1        0.0189
     25 C          66.8575   92.4625   12.4835 C.ar    1  UNL1        0.1027
     26 C          67.4526   92.9509   13.7709 C.ar    1  UNL1        0.0232
     27 C          66.8166   92.5824   15.0784 C.ar    1  UNL1        0.0309
     28 C          65.5855   91.7256   15.0986 C.ar    1  UNL1        0.1363
     29 F          64.9495   91.3572   16.4062 F       1  UNL1       -0.2045
     30 N          67.4935   92.8310   11.1759 N.ar    1  UNL1       -0.1478
     31 N          67.2791   94.1089   10.4202 N.ar    1  UNL1       -0.1447
     32 C          68.1086   94.0540    9.1717 C.ar    1  UNL1        0.1446
     33 C          68.8358   92.7420    9.1557 C.ar    1  UNL1        0.1446
     34 N          68.4556   91.9862   10.3943 N.ar    1  UNL1       -0.1447
@<TRIPOS>BOND
     1    20    21    1
     2    21     9    1
     3     9    10   ar
     4    10    11   ar
     5    11    12   ar
     6    12     1    1
     7     1     2    2
     8     1     3   am
     9     3     4    1
    10     4     5    1
    11     5     6    1
    12     6     7    1
    13     7     8    1
    14     8    22    1
    15    22    23    1
    16    23    24   ar
    17    24    25   ar
    18    25    30    1
    19    30    31   ar
    20    31    32   ar
    21    32    33   ar
    22    33    34   ar
    23    25    26   ar
    24    26    27   ar
    25    27    28   ar
    26    28    29    1
    27    12    13   ar
    28    13    15    1
    29    15    16   ar
    30    16    17   ar
    31    17    18   ar
    32    18    19   ar
    33    13    14   ar
    34    14     9   ar
    35     8     3    1
    36    28    23   ar
    37    19    15   ar
    38    34    30   ar
@<TRIPOS>MOLECULE
*****
 34 38 0 0 0
SMALL
GASTEIGER

@<TRIPOS>ATOM
      1 C          61.0481   86.6685   10.2338 C.2     1  UNL1        0.2506
      2 O          60.6741   86.8260   11.6779 O.2     1  UNL1       -0.2699
      3 N          62.0653   85.6428    9.8301 N.am    1  UNL1       -0.2723
      4 C          62.4394   85.4853    8.3860 C.3     1  UNL1        0.1257
      5 C          63.4566   84.4595    7.9823 C.3     1  UNL1        0.1637
      6 O          64.0999   83.5912    9.0226 O.3     1  UNL1       -0.3502
      7 C          63.7259   83.7487   10.4667 C.3     1  UNL1        0.1622
      8 C          62.7086   84.7745   10.8705 C.3     1  UNL1        0.1097
      9 C          59.1183   89.2734    7.1128 C.ar    1  UNL1        0.1403
     10 C          58.8868   87.7914    7.1005 C.ar    1  UNL1        0.0371
     11 C          59.5301   86.9231    8.1408 C.ar    1  UNL1        0.0092
     12 C          60.4048   87.5368    9.1935 C.ar    1  UNL1        0.0731
     13 C          60.6363   89.0187    9.2058 C.ar    1  UNL1        0.1102
     14 C          59.9931   89.8870    8.1655 C.ar    1  UNL1        0.0579
     15 N          61.5111   89.6325   10.2586 N.ar    1  UNL1       -0.1476
     16 N          61.1287   89.8815   11.6875 N.ar    1  UNL1       -0.1447
     17 C          62.3031   90.5079   12.3792 C.ar    1  UNL1        0.1446
     18 C          63.4113   90.6460   11.3778 C.ar    1  UNL1        0.1446
     19 N          62.9218   90.1050   10.0672 N.ar    1  UNL1       -0.1447
     20 C          59.3140   91.0761    5.2523 C.3     1  UNL1        0.2525
     21 O          58.4750   90.1416    6.0725 O.3     1  UNL1       -0.4714
     22 C          62.3347   84.9320   12.3145 C.3     1  UNL1        0.0510
     23 C          63.3384   85.4606   13.2959 C.ar    1  UNL1        0.0086
     24 C          63.3379   86.9160   13.6587 C.ar    1  UNL1        0.0189
     25 C          64.3417   87.4446   14.6401 C.ar    1  UNL1        0.1027
     26 C          65.3459   86.5178   15.2586 C.ar    1  UNL1        0.0232
     27 C          65.3463   85.0624   14.8957 C.ar    1  UNL1        0.0309
     28 C          64.3426   84.5338   13.9144 C.ar    1  UNL1        0.1363
     29 F          64.3431   83.0783   13.5515 F       1  UNL1       -0.2045
     30 N          64.3412   88.9001   15.0029 N.ar    1  UNL1       -0.1478
     31 N          65.2097   89.9608   14.3942 N.ar    1  UNL1       -0.1447
     32 C          64.8775   91.2667   15.0532 C.ar    1  UNL1        0.1446
     33 C          63.8036   91.0130   16.0693 C.ar    1  UNL1        0.1446
     34 N          63.4722   89.5504   16.0382 N.ar    1  UNL1       -0.1447
@<TRIPOS>BOND
     1    20    21    1
     2    21     9    1
     3     9    10   ar
     4    10    11   ar
     5    11    12   ar
     6    12     1    1
     7     1     2    2
     8     1     3   am
     9     3     4    1
    10     4     5    1
    11     5     6    1
    12     6     7    1
    13     7     8    1
    14     8    22    1
    15    22    23    1
    16    23    24   ar
    17    24    25   ar
    18    25    30    1
    19    30    31   ar
    20    31    32   ar
    21    32    33   ar
    22    33    34   ar
    23    25    26   ar
    24    26    27   ar
    25    27    28   ar
    26    28    29    1
    27    12    13   ar
    28    13    15    1
    29    15    16   ar
    30    16    17   ar
    31    17    18   ar
    32    18    19   ar
    33    13    14   ar
    34    14     9   ar
    35     8     3    1
    36    28    23   ar
    37    19    15   ar
    38    34    30   ar
@<TRIPOS>MOLECULE
*****
 34 38 0 0 0
SMALL
GASTEIGER

@<TRIPOS>ATOM
      1 C          62.7662   89.0188   11.6619 C.2     1  UNL1        0.2506
      2 O          62.9671   87.8540   12.5854 O.2     1  UNL1       -0.2699
      3 N          61.7279   88.9490   10.5817 N.am    1  UNL1       -0.2723
      4 C          61.5270   90.1139    9.6581 C.3     1  UNL1        0.1257
      5 C          60.4887   90.0441    8.5778 C.3     1  UNL1        0.1637
      6 O          59.6513   88.8095    8.4210 O.3     1  UNL1       -0.3502
      7 C          59.8522   87.6447    9.3445 C.3     1  UNL1        0.1622
      8 C          60.8905   87.7145   10.4248 C.3     1  UNL1        0.1097
      9 C          65.2784   92.7225   12.1324 C.ar    1  UNL1        0.1403
     10 C          64.7551   92.3379   10.7803 C.ar    1  UNL1        0.0371
     11 C          63.9177   91.1034   10.6235 C.ar    1  UNL1        0.0092
     12 C          63.6036   90.2534   11.8188 C.ar    1  UNL1        0.0731
     13 C          64.1268   90.6380   13.1709 C.ar    1  UNL1        0.1102
     14 C          64.9642   91.8725   13.3277 C.ar    1  UNL1        0.0579
     15 N          63.8127   89.7880   14.3663 N.ar    1  UNL1       -0.1476
     16 N          64.5005   88.5097   14.7445 N.ar    1  UNL1       -0.1447
     17 C          63.8685   87.9987   16.0052 C.ar    1  UNL1        0.1446
     18 C          62.7901   88.9612   16.4062 C.ar    1  UNL1        0.1446
     19 N          62.7556   90.0670   15.3932 N.ar    1  UNL1       -0.1447
     20 C          66.1328   94.9944   11.2059 C.3     1  UNL1        0.2525
     21 O          66.1158   93.9571   12.2892 O.3     1  UNL1       -0.4714
     22 C          61.0914   86.5497   11.3483 C.3     1  UNL1        0.0510
     23 C          61.9829   85.4143   10.9406 C.ar    1  UNL1        0.0086
     24 C          62.1216   84.2135   11.8286 C.ar    1  UNL1        0.0189
     25 C          63.0131   83.0781   11.4209 C.ar    1  UNL1        0.1027
     26 C          63.7659   83.1436   10.1251 C.ar    1  UNL1        0.0232
     27 C          63.6271   84.3445    9.2371 C.ar    1  UNL1        0.0309
     28 C          62.7356   85.4798    9.6448 C.ar    1  UNL1        0.1363
     29 F          62.5969   86.6807    8.7567 F       1  UNL1       -0.2045
     30 N          63.1518   81.8772   12.3090 N.ar    1  UNL1       -0.1478
     31 N          63.9742   81.7968   13.5609 N.ar    1  UNL1       -0.1447
     32 C          63.8232   80.4159   14.1268 C.ar    1  UNL1        0.1446
     33 C          62.9075   79.6428   13.2245 C.ar    1  UNL1        0.1446
     34 N          62.4926   80.5460   12.1011 N.ar    1  UNL1       -0.1447
@<TRIPOS>BOND
     1    20    21    1
     2    21     9    1
     3     9    10   ar
     4    10    11   ar
     5    11    12   ar
     6    12     1    1
     7     1     2    2
     8     1     3   am
     9     3     4    1
    10     4     5    1
    11     5     6    1
    12     6     7    1
    13     7     8    1
    14     8    22    1
    15    22    23    1
    16    23    24   ar
    17    24    25   ar
    18    25    30    1
    19    30    31   ar
    20    31    32   ar
    21    32    33   ar
    22    33    34   ar
    23    25    26   ar
    24    26    27   ar
    25    27    28   ar
    26    28    29    1
    27    12    13   ar
    28    13    15    1
    29    15    16   ar
    30    16    17   ar
    31    17    18   ar
    32    18    19   ar
    33    13    14   ar
    34    14     9   ar
    35     8     3    1
    36    28    23   ar
    37    19    15   ar
    38    34    30   ar
@<TRIPOS>MOLECULE
*****
 34 38 0 0 0
SMALL
GASTEIGER

@<TRIPOS>ATOM
      1 C          64.5579   90.9729   13.0321 C.2     1  UNL1        0.2506
      2 O          63.9887   91.6316   11.8106 O.2     1  UNL1       -0.2699
      3 N          64.2443   89.5354   13.3239 N.am    1  UNL1       -0.2723
      4 C          64.8136   88.8766   14.5455 C.3     1  UNL1        0.1257
      5 C          64.5000   87.4391   14.8373 C.3     1  UNL1        0.1637
      6 O          63.6172   86.6603   13.9077 O.3     1  UNL1       -0.3502
      7 C          63.0480   87.3190   12.6862 C.3     1  UNL1        0.1622
      8 C          63.3615   88.7566   12.3943 C.3     1  UNL1        0.1097
      9 C          67.2063   93.3092   15.8209 C.ar    1  UNL1        0.1403
     10 C          66.0964   92.4644   16.3725 C.ar    1  UNL1        0.0371
     11 C          65.2136   91.6856   15.4429 C.ar    1  UNL1        0.0092
     12 C          65.4407   91.7516   13.9617 C.ar    1  UNL1        0.0731
     13 C          66.5507   92.5964   13.4101 C.ar    1  UNL1        0.1102
     14 C          67.4335   93.3752   14.3397 C.ar    1  UNL1        0.0579
     15 N          66.7779   92.6624   11.9288 N.ar    1  UNL1       -0.1476
     16 N          67.7852   91.8646   11.1549 N.ar    1  UNL1       -0.1447
     17 C          67.6676   92.2470    9.7092 C.ar    1  UNL1        0.1446
     18 C          66.5876   93.2811    9.5897 C.ar    1  UNL1        0.1446
     19 N          66.0378   93.5378   10.9614 N.ar    1  UNL1       -0.1447
     20 C          69.4405   94.5491   16.2911 C.3     1  UNL1        0.2525
     21 O          68.0891   94.0880   16.7505 O.3     1  UNL1       -0.4714
     22 C          62.7923   89.4153   11.1728 C.3     1  UNL1        0.0510
     23 C          61.7215   88.7268   10.3796 C.ar    1  UNL1        0.0086
     24 C          62.0852   87.6332    9.4196 C.ar    1  UNL1        0.0189
     25 C          61.0143   86.9447    8.6263 C.ar    1  UNL1        0.1027
     26 C          59.5798   87.3499    8.7930 C.ar    1  UNL1        0.0232
     27 C          59.2161   88.4436    9.7530 C.ar    1  UNL1        0.0309
     28 C          60.2869   89.1320   10.5463 C.ar    1  UNL1        0.1363
     29 F          59.9232   90.2257   11.5063 F       1  UNL1       -0.2045
     30 N          61.3781   85.8510    7.6663 N.ar    1  UNL1       -0.1478
     31 N          62.7404   85.2479    7.4919 N.ar    1  UNL1       -0.1447
     32 C          62.6478   84.1926    6.4300 C.ar    1  UNL1        0.1446
     33 C          61.2281   84.1435    5.9480 C.ar    1  UNL1        0.1446
     34 N          60.4434   85.1685    6.7121 N.ar    1  UNL1       -0.1447
@<TRIPOS>BOND
     1    20    21    1
     2    21     9    1
     3     9    10   ar
     4    10    11   ar
     5    11    12   ar
     6    12     1    1
     7     1     2    2
     8     1     3   am
     9     3     4    1
    10     4     5    1
    11     5     6    1
    12     6     7    1
    13     7     8    1
    14     8    22    1
    15    22    23    1
    16    23    24   ar
    17    24    25   ar
    18    25    30    1
    19    30    31   ar
    20    31    32   ar
    21    32    33   ar
    22    33    34   ar
    23    25    26   ar
    24    26    27   ar
    25    27    28   ar
    26    28    29    1
    27    12    13   ar
    28    13    15    1
    29    15    16   ar
    30    16    17   ar
    31    17    18   ar
    32    18    19   ar
    33    13    14   ar
    34    14     9   ar
    35     8     3    1
    36    28    23   ar
    37    19    15   ar
    38    34    30   ar
@<TRIPOS>MOLECULE
*****
 34 38 0 0 0
SMALL
GASTEIGER

@<TRIPOS>ATOM
      1 C          64.0522   85.0739   14.0282 C.2     1  UNL1        0.2506
      2 O          65.1196   85.8241   13.2881 O.2     1  UNL1       -0.2699
      3 N          63.3686   85.7069   15.2038 N.am    1  UNL1       -0.2723
      4 C          62.3011   84.9567   15.9439 C.3     1  UNL1        0.1257
      5 C          61.6175   85.5896   17.1195 C.3     1  UNL1        0.1637
      6 O          62.0014   86.9727   17.5551 O.3     1  UNL1       -0.3502
      7 C          63.0688   87.7229   16.8150 C.3     1  UNL1        0.1622
      8 C          63.7525   87.0900   15.6393 C.3     1  UNL1        0.1097
      9 C          62.9006   80.9247   12.7216 C.ar    1  UNL1        0.1403
     10 C          63.6980   81.1215   13.9767 C.ar    1  UNL1        0.0371
     11 C          64.0818   82.5046   14.4122 C.ar    1  UNL1        0.0092
     12 C          63.6683   83.6908   13.5927 C.ar    1  UNL1        0.0731
     13 C          62.8709   83.4940   12.3376 C.ar    1  UNL1        0.1102
     14 C          62.4870   82.1109   11.9020 C.ar    1  UNL1        0.0579
     15 N          62.4573   84.6803   11.5179 N.ar    1  UNL1       -0.1476
     16 N          61.5697   85.8005   11.9735 N.ar    1  UNL1       -0.1447
     17 C          61.4225   86.7672   10.8360 C.ar    1  UNL1        0.1446
     18 C          62.2191   86.2444    9.6774 C.ar    1  UNL1        0.1446
     19 N          62.8586   84.9547   10.0989 N.ar    1  UNL1       -0.1447
     20 C          62.7931   79.0938   10.8814 C.3     1  UNL1        0.2525
     21 O          62.5167   79.5416   12.2861 O.3     1  UNL1       -0.4714
     22 C          64.8199   87.8401   14.8993 C.3     1  UNL1        0.0510
     23 C          64.4603   89.0459   14.0827 C.ar    1  UNL1        0.0086
     24 C          63.3337   88.9740   13.0950 C.ar    1  UNL1        0.0189
     25 C          62.9741   90.1798   12.2784 C.ar    1  UNL1        0.1027
     26 C          63.7411   91.4574   12.4495 C.ar    1  UNL1        0.0232
     27 C          64.8677   91.5293   13.4372 C.ar    1  UNL1        0.0309
     28 C          65.2273   90.3235   14.2538 C.ar    1  UNL1        0.1363
     29 F          66.3540   90.3954   15.2415 F       1  UNL1       -0.2045
     30 N          61.8474   90.1079   11.2907 N.ar    1  UNL1       -0.1478
     31 N          60.3841   90.1523   11.6176 N.ar    1  UNL1       -0.1447
     32 C          59.6186   90.0508   10.3317 C.ar    1  UNL1        0.1446
     33 C          60.6088   89.9437    9.2100 C.ar    1  UNL1        0.1446
     34 N          61.9862   89.9790    9.8027 N.ar    1  UNL1       -0.1447
@<TRIPOS>BOND
     1    20    21    1
     2    21     9    1
     3     9    10   ar
     4    10    11   ar
     5    11    12   ar
     6    12     1    1
     7     1     2    2
     8     1     3   am
     9     3     4    1
    10     4     5    1
    11     5     6    1
    12     6     7    1
    13     7     8    1
    14     8    22    1
    15    22    23    1
    16    23    24   ar
    17    24    25   ar
    18    25    30    1
    19    30    31   ar
    20    31    32   ar
    21    32    33   ar
    22    33    34   ar
    23    25    26   ar
    24    26    27   ar
    25    27    28   ar
    26    28    29    1
    27    12    13   ar
    28    13    15    1
    29    15    16   ar
    30    16    17   ar
    31    17    18   ar
    32    18    19   ar
    33    13    14   ar
    34    14     9   ar
    35     8     3    1
    36    28    23   ar
    37    19    15   ar
    38    34    30   ar
