@<TRIPOS>MOLECULE
*****
 46 50 0 0 0
SMALL
GASTEIGER

@<TRIPOS>ATOM
      1 C          63.1767   89.9928   12.1271 C.ar    1  UNL1        0.0574
      2 C          62.3336   89.6270   10.9417 C.ar    1  UNL1        0.0786
      3 N          61.9810   88.1915   10.6864 N.ar    1  UNL1       -0.2979
      4 C          62.4716   87.1219   11.6166 C.ar    1  UNL1        0.1750
      5 N          63.3147   87.4877   12.8021 N.ar    1  UNL1       -0.1847
      6 C          63.6673   88.9231   13.0573 C.ar    1  UNL1        0.2786
      7 O          64.5104   89.2890   14.2428 O.2     1  UNL1       -0.2654
      8 C          63.5294   91.4283   12.3824 C.3     1  UNL1        0.0622
      9 C          67.5899   93.2809    9.5610 C.3     1  UNL1        0.1537
     10 N          66.7517   92.7977   10.7073 N.ar    1  UNL1       -0.2477
     11 C          65.3260   92.3389   10.6253 C.ar    1  UNL1        0.0927
     12 C          64.8853   91.9461   12.0042 C.ar    1  UNL1        0.0220
     13 C          66.0388   92.1622   12.9385 C.ar    1  UNL1        0.1177
     14 N          67.1923   92.6885   12.1371 N.ar    1  UNL1       -0.1679
     15 C          61.1378   87.8257    9.5010 C.3     1  UNL1        0.1934
     16 C          60.2656   88.8599    8.8531 C.2     1  UNL1        0.2491
     17 O          60.1765   90.2386    9.4375 O.2     1  UNL1       -0.2727
     18 N          59.4826   88.5155    7.6210 N.am    1  UNL1       -0.2724
     19 C          59.5717   87.1368    7.0367 C.3     1  UNL1        0.1106
     20 C          60.3076   86.0565    7.7724 C.3     1  UNL1        0.0869
     21 N          61.3228   85.2178    7.0542 N.3     1  UNL1       -0.3197
     22 H          60.8565   84.6534    6.3440 H       1  UNL1        0.1189
     23 H          61.7912   84.6051    7.7218 H       1  UNL1        0.1189
     24 C          58.6104   89.5497    6.9732 C.3     1  UNL1        0.1202
     25 C          59.1655   90.4278    5.8910 C.ar    1  UNL1       -0.0023
     26 C          60.6276   90.3766    5.5599 C.ar    1  UNL1       -0.0026
     27 C          61.1827   91.2545    4.4778 C.ar    1  UNL1       -0.0003
     28 C          60.2757   92.1837    3.7268 C.ar    1  UNL1       -0.0000
     29 C          58.8136   92.2349    4.0580 C.ar    1  UNL1       -0.0003
     30 C          58.2585   91.3569    5.1401 C.ar    1  UNL1       -0.0026
     31 C          60.8307   93.0617    2.6446 C.ar    1  UNL1        0.0001
     32 C          60.1113   94.3194    2.2565 C.ar    1  UNL1        0.0009
     33 C          60.6663   95.1974    1.1744 C.ar    1  UNL1        0.0114
     34 C          61.9408   94.8178    0.4804 C.ar    1  UNL1        0.0577
     35 CL         62.4958   95.6958   -0.6017 Cl      1  UNL1       -0.0822
     36 C          62.6602   93.5601    0.8686 C.ar    1  UNL1        0.0114
     37 C          62.1052   92.6821    1.9507 C.ar    1  UNL1        0.0009
     38 S          62.1189   85.6864   11.3614 S.3     1  UNL1       -0.0724
     39 C          63.1974   84.6446   11.3230 C.3     1  UNL1        0.0913
     40 C          62.9619   83.2982   11.9409 C.ar    1  UNL1       -0.0108
     41 C          63.1638   82.0541   11.1277 C.ar    1  UNL1       -0.0011
     42 C          62.9283   80.7078   11.7457 C.ar    1  UNL1        0.0293
     43 C          62.4909   80.6056   13.1768 C.ar    1  UNL1        0.1401
     44 F          62.2554   79.2591   13.7948 F       1  UNL1       -0.2042
     45 C          62.2889   81.8497   13.9900 C.ar    1  UNL1        0.0293
     46 C          62.5244   83.1960   13.3721 C.ar    1  UNL1       -0.0011
@<TRIPOS>BOND
     1     9    10    1
     2    10    11   ar
     3    11    12   ar
     4    12     8    1
     5     8     1    1
     6     1     2   ar
     7     2     3   ar
     8     3    15    1
     9    15    16    1
    10    16    17    2
    11    16    18   am
    12    18    19    1
    13    19    20    1
    14    20    21    1
    15    18    24    1
    16    24    25    1
    17    25    26   ar
    18    26    27   ar
    19    27    28   ar
    20    28    31    1
    21    31    32   ar
    22    32    33   ar
    23    33    34   ar
    24    34    35    1
    25    34    36   ar
    26    36    37   ar
    27    28    29   ar
    28    29    30   ar
    29     3     4   ar
    30     4    38    1
    31    38    39    1
    32    39    40    1
    33    40    41   ar
    34    41    42   ar
    35    42    43   ar
    36    43    44    1
    37    43    45   ar
    38    45    46   ar
    39     4     5   ar
    40     5     6   ar
    41     6     7    2
    42    12    13   ar
    43    13    14   ar
    44    14    10   ar
    45     6     1   ar
    46    30    25   ar
    47    46    40   ar
    48    37    31   ar
    49    21    22    1
    50    21    23    1
@<TRIPOS>MOLECULE
*****
 46 50 0 0 0
SMALL
GASTEIGER

@<TRIPOS>ATOM
      1 C          62.2877   89.2734   11.2295 C.ar    1  UNL1        0.0574
      2 C          62.8708   88.8465   12.5439 C.ar    1  UNL1        0.0786
      3 N          63.8872   89.7107   13.2294 N.ar    1  UNL1       -0.2979
      4 C          64.3205   91.0017   12.6006 C.ar    1  UNL1        0.1750
      5 N          63.7374   91.4286   11.2861 N.ar    1  UNL1       -0.1847
      6 C          62.7210   90.5644   10.6006 C.ar    1  UNL1        0.2786
      7 O          62.1378   90.9912    9.2861 O.2     1  UNL1       -0.2654
      8 C          61.2712   88.4091   10.5438 C.3     1  UNL1        0.0622
      9 C          62.0218   84.7674    6.7949 C.3     1  UNL1        0.1537
     10 N          62.0495   85.4869    8.1108 N.ar    1  UNL1       -0.2477
     11 C          61.4385   86.8268    8.3960 C.ar    1  UNL1        0.0927
     12 C          61.7045   87.1608    9.8340 C.ar    1  UNL1        0.0220
     13 C          62.4799   86.0274   10.4374 C.ar    1  UNL1        0.1177
     14 N          62.6932   84.9928    9.3724 N.ar    1  UNL1       -0.1679
     15 C          64.4704   89.2839   14.5439 C.3     1  UNL1        0.1934
     16 C          64.2727   87.8791   15.0313 C.2     1  UNL1        0.2491
     17 O          64.7607   86.7240   14.2081 O.2     1  UNL1       -0.2727
     18 N          63.5871   87.6294   16.3419 N.am    1  UNL1       -0.2724
     19 C          63.0991   88.7846   17.1651 C.3     1  UNL1        0.1106
     20 C          62.7178   90.0728   16.4980 C.3     1  UNL1        0.0869
     21 N          63.4677   91.3325   16.8157 N.3     1  UNL1       -0.3197
     22 H          63.3040   91.5893   17.7891 H       1  UNL1        0.1189
     23 H          63.1436   92.0838   16.2067 H       1  UNL1        0.1189
     24 C          63.3894   86.2247   16.8293 C.3     1  UNL1        0.1202
     25 C          63.2881   85.0968   15.8455 C.ar    1  UNL1       -0.0023
     26 C          61.9644   84.7579   15.2267 C.ar    1  UNL1       -0.0026
     27 C          61.8630   83.6301   14.2431 C.ar    1  UNL1       -0.0003
     28 C          63.0854   82.8411   13.8782 C.ar    1  UNL1       -0.0000
     29 C          64.4092   83.1800   14.4969 C.ar    1  UNL1       -0.0003
     30 C          64.5105   84.3078   15.4806 C.ar    1  UNL1       -0.0026
     31 C          62.9841   81.7132   12.8944 C.ar    1  UNL1        0.0001
     32 C          62.6092   80.3391   13.3649 C.ar    1  UNL1        0.0009
     33 C          62.5079   79.2112   12.3813 C.ar    1  UNL1        0.0114
     34 C          62.7815   79.4575   10.9272 C.ar    1  UNL1        0.0577
     35 CL         62.6802   78.3295    9.9434 Cl      1  UNL1       -0.0822
     36 C          63.1564   80.8315   10.4567 C.ar    1  UNL1        0.0114
     37 C          63.2577   81.9594   11.4403 C.ar    1  UNL1        0.0009
     38 S          65.3370   91.8660   13.2862 S.3     1  UNL1       -0.0724
     39 C          66.7220   91.9857   12.7228 C.3     1  UNL1        0.0913
     40 C          66.9755   92.8683   11.5367 C.ar    1  UNL1       -0.0108
     41 C          67.8462   92.3852   10.4149 C.ar    1  UNL1       -0.0011
     42 C          68.0997   93.2679    9.2289 C.ar    1  UNL1        0.0293
     43 C          67.4826   94.6335    9.1647 C.ar    1  UNL1        0.1401
     44 F          67.7362   95.5161    7.9786 F       1  UNL1       -0.2042
     45 C          66.6119   95.1166   10.2866 C.ar    1  UNL1        0.0293
     46 C          66.3584   94.2340   11.4726 C.ar    1  UNL1       -0.0011
@<TRIPOS>BOND
     1     9    10    1
     2    10    11   ar
     3    11    12   ar
     4    12     8    1
     5     8     1    1
     6     1     2   ar
     7     2     3   ar
     8     3    15    1
     9    15    16    1
    10    16    17    2
    11    16    18   am
    12    18    19    1
    13    19    20    1
    14    20    21    1
    15    18    24    1
    16    24    25    1
    17    25    26   ar
    18    26    27   ar
    19    27    28   ar
    20    28    31    1
    21    31    32   ar
    22    32    33   ar
    23    33    34   ar
    24    34    35    1
    25    34    36   ar
    26    36    37   ar
    27    28    29   ar
    28    29    30   ar
    29     3     4   ar
    30     4    38    1
    31    38    39    1
    32    39    40    1
    33    40    41   ar
    34    41    42   ar
    35    42    43   ar
    36    43    44    1
    37    43    45   ar
    38    45    46   ar
    39     4     5   ar
    40     5     6   ar
    41     6     7    2
    42    12    13   ar
    43    13    14   ar
    44    14    10   ar
    45     6     1   ar
    46    30    25   ar
    47    46    40   ar
    48    37    31   ar
    49    21    22    1
    50    21    23    1
@<TRIPOS>MOLECULE
*****
 46 50 0 0 0
SMALL
GASTEIGER

@<TRIPOS>ATOM
      1 C          62.1804   85.7588    9.6089 C.ar    1  UNL1        0.0574
      2 C          62.3944   86.1500   11.0411 C.ar    1  UNL1        0.0786
      3 N          63.3235   85.3508   11.9060 N.ar    1  UNL1       -0.2979
      4 C          64.0385   84.1605   11.3387 C.ar    1  UNL1        0.1750
      5 N          63.8245   83.7693    9.9066 N.ar    1  UNL1       -0.1847
      6 C          62.8955   84.5684    9.0417 C.ar    1  UNL1        0.2786
      7 O          62.6814   84.1773    7.6094 O.2     1  UNL1       -0.2654
      8 C          61.2513   86.5580    8.7439 C.3     1  UNL1        0.0622
      9 C          59.3382   90.2870   11.9556 C.3     1  UNL1        0.1537
     10 N          59.8016   89.5639   10.7257 N.ar    1  UNL1       -0.2477
     11 C          60.3430   88.1659   10.6763 C.ar    1  UNL1        0.0927
     12 C          60.6809   87.8499    9.2495 C.ar    1  UNL1        0.0220
     13 C          60.3483   89.0525    8.4170 C.ar    1  UNL1        0.1177
     14 N          59.8049   90.1119    9.3294 N.ar    1  UNL1       -0.1679
     15 C          63.5375   85.7420   13.3382 C.3     1  UNL1        0.1934
     16 C          63.5990   87.1916   13.7186 C.2     1  UNL1        0.2491
     17 O          63.5058   88.2496   12.6592 O.2     1  UNL1       -0.2727
     18 N          63.7538   87.5834   15.1582 N.am    1  UNL1       -0.2724
     19 C          63.8471   86.5254   16.2175 C.3     1  UNL1        0.1106
     20 C          62.8668   86.5124   17.3528 C.3     1  UNL1        0.0869
     21 N          61.4095   86.2812   17.0827 N.3     1  UNL1       -0.3197
     22 H          61.0357   87.0620   16.5433 H       1  UNL1        0.1189
     23 H          60.9072   86.2077   17.9674 H       1  UNL1        0.1189
     24 C          63.8153   89.0331   15.5386 C.3     1  UNL1        0.1202
     25 C          64.3795   90.0373   14.5776 C.ar    1  UNL1       -0.0023
     26 C          63.5150   90.6019   13.4895 C.ar    1  UNL1       -0.0026
     27 C          64.0791   91.6061   12.5286 C.ar    1  UNL1       -0.0003
     28 C          65.5076   92.0456   12.6558 C.ar    1  UNL1       -0.0000
     29 C          66.3720   91.4810   13.7439 C.ar    1  UNL1       -0.0003
     30 C          65.8079   90.4768   14.7048 C.ar    1  UNL1       -0.0026
     31 C          66.0717   93.0499   11.6948 C.ar    1  UNL1        0.0001
     32 C          65.9451   94.5166   11.9825 C.ar    1  UNL1        0.0009
     33 C          66.5092   95.5208   11.0217 C.ar    1  UNL1        0.0114
     34 C          67.1999   95.0583    9.7731 C.ar    1  UNL1        0.0577
     35 CL         67.7640   96.0625    8.8121 Cl      1  UNL1       -0.0822
     36 C          67.3265   93.5916    9.4853 C.ar    1  UNL1        0.0114
     37 C          66.7624   92.5874   10.4462 C.ar    1  UNL1        0.0009
     38 S          64.9677   83.3613   12.2037 S.3     1  UNL1       -0.0724
     39 C          64.6959   81.9073   12.4529 C.3     1  UNL1        0.0913
     40 C          63.3734   81.4771   13.0151 C.ar    1  UNL1       -0.0108
     41 C          62.6231   82.3837   13.9451 C.ar    1  UNL1       -0.0011
     42 C          61.3006   81.9534   14.5071 C.ar    1  UNL1        0.0293
     43 C          60.7285   80.6165   14.1392 C.ar    1  UNL1        0.1401
     44 F          59.4060   80.1863   14.7013 F       1  UNL1       -0.2042
     45 C          61.4789   79.7099   13.2092 C.ar    1  UNL1        0.0293
     46 C          62.8013   80.1402   12.6471 C.ar    1  UNL1       -0.0011
@<TRIPOS>BOND
     1     9    10    1
     2    10    11   ar
     3    11    12   ar
     4    12     8    1
     5     8     1    1
     6     1     2   ar
     7     2     3   ar
     8     3    15    1
     9    15    16    1
    10    16    17    2
    11    16    18   am
    12    18    19    1
    13    19    20    1
    14    20    21    1
    15    18    24    1
    16    24    25    1
    17    25    26   ar
    18    26    27   ar
    19    27    28   ar
    20    28    31    1
    21    31    32   ar
    22    32    33   ar
    23    33    34   ar
    24    34    35    1
    25    34    36   ar
    26    36    37   ar
    27    28    29   ar
    28    29    30   ar
    29     3     4   ar
    30     4    38    1
    31    38    39    1
    32    39    40    1
    33    40    41   ar
    34    41    42   ar
    35    42    43   ar
    36    43    44    1
    37    43    45   ar
    38    45    46   ar
    39     4     5   ar
    40     5     6   ar
    41     6     7    2
    42    12    13   ar
    43    13    14   ar
    44    14    10   ar
    45     6     1   ar
    46    30    25   ar
    47    46    40   ar
    48    37    31   ar
    49    21    22    1
    50    21    23    1
@<TRIPOS>MOLECULE
*****
 46 50 0 0 0
SMALL
GASTEIGER

@<TRIPOS>ATOM
      1 C          60.6941   85.9889    8.5068 C.ar    1  UNL1        0.0574
      2 C          61.0934   86.3282    9.9123 C.ar    1  UNL1        0.0786
      3 N          62.3175   85.7052   10.5152 N.ar    1  UNL1       -0.2979
      4 C          63.1422   84.7431    9.7126 C.ar    1  UNL1        0.1750
      5 N          62.7429   84.4038    8.3071 N.ar    1  UNL1       -0.1847
      6 C          61.5188   85.0268    7.7042 C.ar    1  UNL1        0.2786
      7 O          61.1193   84.6875    6.2987 O.2     1  UNL1       -0.2654
      8 C          59.4699   86.6119    7.9038 C.3     1  UNL1        0.0622
      9 C          58.7977   91.1768    5.3368 C.3     1  UNL1        0.1537
     10 N          59.1484   90.1737    6.3955 N.ar    1  UNL1       -0.2477
     11 C          58.9813   88.6867    6.2910 C.ar    1  UNL1        0.0927
     12 C          59.4574   88.0754    7.5754 C.ar    1  UNL1        0.0220
     13 C          59.9188   89.1846    8.4736 C.ar    1  UNL1        0.1177
     14 N          59.7279   90.4814    7.7444 N.ar    1  UNL1       -0.1679
     15 C          62.7170   86.0445   11.9207 C.3     1  UNL1        0.1934
     16 C          62.6897   87.4707   12.3846 C.2     1  UNL1        0.2491
     17 O          61.7754   88.4578   11.7214 O.2     1  UNL1       -0.2727
     18 N          63.5767   87.9098   13.5117 N.am    1  UNL1       -0.2724
     19 C          64.4909   86.9227   14.1750 C.3     1  UNL1        0.1106
     20 C          63.9724   86.0385   15.2701 C.3     1  UNL1        0.0869
     21 N          64.6802   84.7573   15.5980 N.3     1  UNL1       -0.3197
     22 H          64.6036   84.1151   14.8093 H       1  UNL1        0.1189
     23 H          64.2541   84.3350   16.4230 H       1  UNL1        0.1189
     24 C          63.5494   89.3360   13.9757 C.3     1  UNL1        0.1202
     25 C          64.1729   90.4103   13.1347 C.ar    1  UNL1       -0.0023
     26 C          65.3655   91.1640   13.6440 C.ar    1  UNL1       -0.0026
     27 C          65.9890   92.2383   12.8031 C.ar    1  UNL1       -0.0003
     28 C          65.4198   92.5588   11.4528 C.ar    1  UNL1       -0.0000
     29 C          64.2272   91.8050   10.9435 C.ar    1  UNL1       -0.0003
     30 C          63.6037   90.7308   11.7844 C.ar    1  UNL1       -0.0026
     31 C          66.0433   93.6331   10.6118 C.ar    1  UNL1        0.0001
     32 C          67.2291   93.3169    9.7493 C.ar    1  UNL1        0.0009
     33 C          67.8526   94.3911    8.9083 C.ar    1  UNL1        0.0114
     34 C          67.2902   95.7815    8.9298 C.ar    1  UNL1        0.0577
     35 CL         67.9137   96.8558    8.0888 Cl      1  UNL1       -0.0822
     36 C          66.1044   96.0977    9.7923 C.ar    1  UNL1        0.0114
     37 C          65.4810   95.0235   10.6333 C.ar    1  UNL1        0.0009
     38 S          64.3664   84.1201   10.3156 S.3     1  UNL1       -0.0724
     39 C          64.3899   82.6507   10.6155 C.3     1  UNL1        0.0913
     40 C          63.4857   82.0860   11.6709 C.ar    1  UNL1       -0.0108
     41 C          62.9849   80.6770   11.5540 C.ar    1  UNL1       -0.0011
     42 C          62.0808   80.1124   12.6093 C.ar    1  UNL1        0.0293
     43 C          61.6774   80.9569   13.7816 C.ar    1  UNL1        0.1401
     44 F          60.7732   80.3923   14.8369 F       1  UNL1       -0.2042
     45 C          62.1782   82.3660   13.8984 C.ar    1  UNL1        0.0293
     46 C          63.0823   82.9305   12.8431 C.ar    1  UNL1       -0.0011
@<TRIPOS>BOND
     1     9    10    1
     2    10    11   ar
     3    11    12   ar
     4    12     8    1
     5     8     1    1
     6     1     2   ar
     7     2     3   ar
     8     3    15    1
     9    15    16    1
    10    16    17    2
    11    16    18   am
    12    18    19    1
    13    19    20    1
    14    20    21    1
    15    18    24    1
    16    24    25    1
    17    25    26   ar
    18    26    27   ar
    19    27    28   ar
    20    28    31    1
    21    31    32   ar
    22    32    33   ar
    23    33    34   ar
    24    34    35    1
    25    34    36   ar
    26    36    37   ar
    27    28    29   ar
    28    29    30   ar
    29     3     4   ar
    30     4    38    1
    31    38    39    1
    32    39    40    1
    33    40    41   ar
    34    41    42   ar
    35    42    43   ar
    36    43    44    1
    37    43    45   ar
    38    45    46   ar
    39     4     5   ar
    40     5     6   ar
    41     6     7    2
    42    12    13   ar
    43    13    14   ar
    44    14    10   ar
    45     6     1   ar
    46    30    25   ar
    47    46    40   ar
    48    37    31   ar
    49    21    22    1
    50    21    23    1
@<TRIPOS>MOLECULE
*****
 46 50 0 0 0
SMALL
GASTEIGER

@<TRIPOS>ATOM
      1 C          62.2609   90.3410   11.7181 C.ar    1  UNL1        0.0574
      2 C          62.4340   89.9095   13.1441 C.ar    1  UNL1        0.0786
      3 N          63.6379   90.3531   13.9211 N.ar    1  UNL1       -0.2979
      4 C          64.6687   91.2284   13.2720 C.ar    1  UNL1        0.1750
      5 N          64.4957   91.6599   11.8459 N.ar    1  UNL1       -0.1847
      6 C          63.2917   91.2163   11.0689 C.ar    1  UNL1        0.2786
      7 O          63.1186   91.6478    9.6428 O.2     1  UNL1       -0.2654
      8 C          61.0569   89.8974   10.9410 C.3     1  UNL1        0.0622
      9 C          62.8047   85.5155    8.5693 C.3     1  UNL1        0.1537
     10 N          61.9010   86.6024    9.0713 N.ar    1  UNL1       -0.2477
     11 C          62.3200   87.7940    9.8804 C.ar    1  UNL1        0.0927
     12 C          61.0976   88.6165   10.1614 C.ar    1  UNL1        0.0220
     13 C          59.9230   87.9334    9.5261 C.ar    1  UNL1        0.1177
     14 N          60.4195   86.6886    8.8523 N.ar    1  UNL1       -0.1679
     15 C          63.8110   89.9216   15.3473 C.3     1  UNL1        0.1934
     16 C          63.1525   88.6656   15.8360 C.2     1  UNL1        0.2491
     17 O          61.8641   88.7429   16.6004 O.2     1  UNL1       -0.2727
     18 N          63.7822   87.3324   15.5603 N.am    1  UNL1       -0.2724
     19 C          65.0705   87.2552   14.7959 C.3     1  UNL1        0.1106
     20 C          66.1723   86.3555   15.2720 C.3     1  UNL1        0.0869
     21 N          66.5048   85.1081   14.5082 N.3     1  UNL1       -0.3197
     22 H          65.7200   84.4587   14.5595 H       1  UNL1        0.1189
     23 H          67.3336   84.6725   14.9128 H       1  UNL1        0.1189
     24 C          63.1236   86.0764   16.0490 C.3     1  UNL1        0.1202
     25 C          63.0613   84.8683   15.1621 C.ar    1  UNL1       -0.0023
     26 C          63.2633   85.0127   13.6828 C.ar    1  UNL1       -0.0026
     27 C          63.2010   83.8046   12.7959 C.ar    1  UNL1       -0.0003
     28 C          62.9367   82.4522   13.3883 C.ar    1  UNL1       -0.0000
     29 C          62.7347   82.3078   14.8676 C.ar    1  UNL1       -0.0003
     30 C          62.7970   83.5158   15.7545 C.ar    1  UNL1       -0.0026
     31 C          62.8744   81.2440   12.5014 C.ar    1  UNL1        0.0001
     32 C          63.1399   81.3784   11.0312 C.ar    1  UNL1        0.0009
     33 C          63.0776   80.1703   10.1443 C.ar    1  UNL1        0.0114
     34 C          62.7498   78.8279   10.7276 C.ar    1  UNL1        0.0577
     35 CL         62.6875   77.6197    9.8406 Cl      1  UNL1       -0.0822
     36 C          62.4844   78.6934   12.1977 C.ar    1  UNL1        0.0114
     37 C          62.5467   79.9015   13.0847 C.ar    1  UNL1        0.0009
     38 S          65.8727   91.6720   14.0490 S.3     1  UNL1       -0.0724
     39 C          66.5806   92.9406   13.6757 C.3     1  UNL1        0.0913
     40 C          66.8474   93.2540   12.2332 C.ar    1  UNL1       -0.0108
     41 C          67.6471   92.3019   11.3943 C.ar    1  UNL1       -0.0011
     42 C          67.9139   92.6154    9.9519 C.ar    1  UNL1        0.0293
     43 C          67.3808   93.8809    9.3484 C.ar    1  UNL1        0.1401
     44 F          67.6476   94.1944    7.9059 F       1  UNL1       -0.2042
     45 C          66.5811   94.8331   10.1873 C.ar    1  UNL1        0.0293
     46 C          66.3144   94.5196   11.6297 C.ar    1  UNL1       -0.0011
@<TRIPOS>BOND
     1     9    10    1
     2    10    11   ar
     3    11    12   ar
     4    12     8    1
     5     8     1    1
     6     1     2   ar
     7     2     3   ar
     8     3    15    1
     9    15    16    1
    10    16    17    2
    11    16    18   am
    12    18    19    1
    13    19    20    1
    14    20    21    1
    15    18    24    1
    16    24    25    1
    17    25    26   ar
    18    26    27   ar
    19    27    28   ar
    20    28    31    1
    21    31    32   ar
    22    32    33   ar
    23    33    34   ar
    24    34    35    1
    25    34    36   ar
    26    36    37   ar
    27    28    29   ar
    28    29    30   ar
    29     3     4   ar
    30     4    38    1
    31    38    39    1
    32    39    40    1
    33    40    41   ar
    34    41    42   ar
    35    42    43   ar
    36    43    44    1
    37    43    45   ar
    38    45    46   ar
    39     4     5   ar
    40     5     6   ar
    41     6     7    2
    42    12    13   ar
    43    13    14   ar
    44    14    10   ar
    45     6     1   ar
    46    30    25   ar
    47    46    40   ar
    48    37    31   ar
    49    21    22    1
    50    21    23    1
@<TRIPOS>MOLECULE
*****
 46 50 0 0 0
SMALL
GASTEIGER

@<TRIPOS>ATOM
      1 C          63.2135   85.2580   12.0099 C.ar    1  UNL1        0.0574
      2 C          62.5348   86.3071   11.1801 C.ar    1  UNL1        0.0786
      3 N          62.5580   87.7414   11.6187 N.ar    1  UNL1       -0.2979
      4 C          63.2600   88.1265   12.8871 C.ar    1  UNL1        0.1750
      5 N          63.9387   87.0773   13.7170 N.ar    1  UNL1       -0.1847
      6 C          63.9155   85.6431   13.2783 C.ar    1  UNL1        0.2786
      7 O          64.5942   84.5939   14.1082 O.2     1  UNL1       -0.2654
      8 C          63.1903   83.8237   11.5713 C.3     1  UNL1        0.0622
      9 C          62.0718   79.1130   13.6780 C.3     1  UNL1        0.1537
     10 N          62.1870   80.5951   13.4777 N.ar    1  UNL1       -0.2477
     11 C          62.7997   81.2795   12.2919 C.ar    1  UNL1        0.0927
     12 C          62.7012   82.7604   12.5093 C.ar    1  UNL1        0.0220
     13 C          62.0275   82.9912   13.8295 C.ar    1  UNL1        0.1177
     14 N          61.7098   81.6530   14.4281 N.ar    1  UNL1       -0.1679
     15 C          61.8793   88.7906   10.7889 C.3     1  UNL1        0.1934
     16 C          61.2633   88.4225    9.4716 C.2     1  UNL1        0.2491
     17 O          61.7189   87.1894    8.7491 O.2     1  UNL1       -0.2727
     18 N          60.1918   89.2875    8.8769 N.am    1  UNL1       -0.2724
     19 C          59.7362   90.5205    9.5995 C.3     1  UNL1        0.1106
     20 C          59.3798   90.4485   11.0547 C.3     1  UNL1        0.0869
     21 N          58.5908   91.5552   11.6892 N.3     1  UNL1       -0.3197
     22 H          59.1463   92.4107   11.6917 H       1  UNL1        0.1189
     23 H          58.3567   91.2991   12.6484 H       1  UNL1        0.1189
     24 C          59.5759   88.9194    7.5597 C.3     1  UNL1        0.1202
     25 C          59.5992   89.8965    6.4217 C.ar    1  UNL1       -0.0023
     26 C          60.8945   90.2214    5.7386 C.ar    1  UNL1       -0.0026
     27 C          60.9179   91.1984    4.6007 C.ar    1  UNL1       -0.0003
     28 C          59.6459   91.8505    4.1459 C.ar    1  UNL1       -0.0000
     29 C          58.3506   91.5255    4.8290 C.ar    1  UNL1       -0.0003
     30 C          58.3273   90.5485    5.9669 C.ar    1  UNL1       -0.0026
     31 C          59.6692   92.8275    3.0079 C.ar    1  UNL1        0.0001
     32 C          60.2889   94.1808    3.1940 C.ar    1  UNL1        0.0009
     33 C          60.3122   95.1579    2.0561 C.ar    1  UNL1        0.0114
     34 C          59.7159   94.7816    0.7322 C.ar    1  UNL1        0.0577
     35 CL         59.7392   95.7587   -0.4058 Cl      1  UNL1       -0.0822
     36 C          59.0963   93.4283    0.5461 C.ar    1  UNL1        0.0114
     37 C          59.0729   92.4513    1.6840 C.ar    1  UNL1        0.0009
     38 S          63.2832   89.5608   13.3258 S.3     1  UNL1       -0.0724
     39 C          64.5487   90.1603   13.8632 C.3     1  UNL1        0.0913
     40 C          65.0999   91.4168   13.2569 C.ar    1  UNL1       -0.0108
     41 C          64.7370   91.7929   11.8509 C.ar    1  UNL1       -0.0011
     42 C          65.2882   93.0493   11.2447 C.ar    1  UNL1        0.0293
     43 C          66.2023   93.9296   12.0444 C.ar    1  UNL1        0.1401
     44 F          66.7534   95.1861   11.4381 F       1  UNL1       -0.2042
     45 C          66.5652   93.5535   13.4503 C.ar    1  UNL1        0.0293
     46 C          66.0140   92.2971   14.0566 C.ar    1  UNL1       -0.0011
@<TRIPOS>BOND
     1     9    10    1
     2    10    11   ar
     3    11    12   ar
     4    12     8    1
     5     8     1    1
     6     1     2   ar
     7     2     3   ar
     8     3    15    1
     9    15    16    1
    10    16    17    2
    11    16    18   am
    12    18    19    1
    13    19    20    1
    14    20    21    1
    15    18    24    1
    16    24    25    1
    17    25    26   ar
    18    26    27   ar
    19    27    28   ar
    20    28    31    1
    21    31    32   ar
    22    32    33   ar
    23    33    34   ar
    24    34    35    1
    25    34    36   ar
    26    36    37   ar
    27    28    29   ar
    28    29    30   ar
    29     3     4   ar
    30     4    38    1
    31    38    39    1
    32    39    40    1
    33    40    41   ar
    34    41    42   ar
    35    42    43   ar
    36    43    44    1
    37    43    45   ar
    38    45    46   ar
    39     4     5   ar
    40     5     6   ar
    41     6     7    2
    42    12    13   ar
    43    13    14   ar
    44    14    10   ar
    45     6     1   ar
    46    30    25   ar
    47    46    40   ar
    48    37    31   ar
    49    21    22    1
    50    21    23    1
@<TRIPOS>MOLECULE
*****
 46 50 0 0 0
SMALL
GASTEIGER

@<TRIPOS>ATOM
      1 C          63.4899   90.2319   15.6545 C.ar    1  UNL1        0.0574
      2 C          62.7664   89.8787   14.3890 C.ar    1  UNL1        0.0786
      3 N          63.0808   90.6085   13.1167 N.ar    1  UNL1       -0.2979
      4 C          64.1186   91.6915   13.1101 C.ar    1  UNL1        0.1750
      5 N          64.8422   92.0446   14.3757 N.ar    1  UNL1       -0.1847
      6 C          64.5278   91.3149   15.6479 C.ar    1  UNL1        0.2786
      7 O          65.2513   91.6680   16.9136 O.2     1  UNL1       -0.2654
      8 C          63.1756   89.5021   16.9268 C.3     1  UNL1        0.0622
      9 C          63.7952   84.4322   15.5881 C.3     1  UNL1        0.1537
     10 N          63.3726   85.6743   16.3151 N.ar    1  UNL1       -0.2477
     11 C          63.7155   87.0823   15.9279 C.ar    1  UNL1        0.0927
     12 C          63.0879   88.0047   16.9305 C.ar    1  UNL1        0.0220
     13 C          62.3570   87.1668   17.9374 C.ar    1  UNL1        0.1177
     14 N          62.5330   85.7265   17.5571 N.ar    1  UNL1       -0.1679
     15 C          62.3573   90.2553   11.8511 C.3     1  UNL1        0.1934
     16 C          62.6914   88.9858   11.1254 C.2     1  UNL1        0.2491
     17 O          63.5748   87.9615   11.7740 O.2     1  UNL1       -0.2727
     18 N          62.1423   88.7405    9.7513 N.am    1  UNL1       -0.2724
     19 C          61.2590   89.7648    9.1027 C.3     1  UNL1        0.1106
     20 C          59.9600   89.3481    8.4791 C.3     1  UNL1        0.0869
     21 N          59.6532   89.7276    7.0608 N.3     1  UNL1       -0.3197
     22 H          59.5578   90.7409    6.9929 H       1  UNL1        0.1189
     23 H          58.7816   89.2839    6.7710 H       1  UNL1        0.1189
     24 C          62.4765   87.4710    9.0257 C.3     1  UNL1        0.1202
     25 C          62.4705   86.1633    9.7605 C.ar    1  UNL1       -0.0023
     26 C          63.2087   84.9842    9.1992 C.ar    1  UNL1       -0.0026
     27 C          63.2028   83.6766    9.9340 C.ar    1  UNL1       -0.0003
     28 C          62.4587   83.5479   11.2300 C.ar    1  UNL1       -0.0000
     29 C          61.7205   84.7269   11.7913 C.ar    1  UNL1       -0.0003
     30 C          61.7265   86.0346   11.0565 C.ar    1  UNL1       -0.0026
     31 C          62.4528   82.2402   11.9649 C.ar    1  UNL1        0.0001
     32 C          62.0897   82.1991   13.4197 C.ar    1  UNL1        0.0009
     33 C          62.0837   80.8915   14.1545 C.ar    1  UNL1        0.0114
     34 C          62.4408   79.6250   13.4346 C.ar    1  UNL1        0.0577
     35 CL         62.4349   78.3172   14.1694 Cl      1  UNL1       -0.0822
     36 C          62.8039   79.6661   11.9797 C.ar    1  UNL1        0.0114
     37 C          62.8098   80.9737   11.2449 C.ar    1  UNL1        0.0009
     38 S          64.4330   92.4213   11.8378 S.3     1  UNL1       -0.0724
     39 C          65.8227   92.3827   11.2748 C.3     1  UNL1        0.0913
     40 C          66.3094   93.5008   10.4013 C.ar    1  UNL1       -0.0108
     41 C          67.4436   93.2683    9.4476 C.ar    1  UNL1       -0.0011
     42 C          67.9302   94.3865    8.5742 C.ar    1  UNL1        0.0293
     43 C          67.2826   95.7371    8.6544 C.ar    1  UNL1        0.1401
     44 F          67.7693   96.8553    7.7809 F       1  UNL1       -0.2042
     45 C          66.1484   95.9696    9.6080 C.ar    1  UNL1        0.0293
     46 C          65.6618   94.8515   10.4815 C.ar    1  UNL1       -0.0011
@<TRIPOS>BOND
     1     9    10    1
     2    10    11   ar
     3    11    12   ar
     4    12     8    1
     5     8     1    1
     6     1     2   ar
     7     2     3   ar
     8     3    15    1
     9    15    16    1
    10    16    17    2
    11    16    18   am
    12    18    19    1
    13    19    20    1
    14    20    21    1
    15    18    24    1
    16    24    25    1
    17    25    26   ar
    18    26    27   ar
    19    27    28   ar
    20    28    31    1
    21    31    32   ar
    22    32    33   ar
    23    33    34   ar
    24    34    35    1
    25    34    36   ar
    26    36    37   ar
    27    28    29   ar
    28    29    30   ar
    29     3     4   ar
    30     4    38    1
    31    38    39    1
    32    39    40    1
    33    40    41   ar
    34    41    42   ar
    35    42    43   ar
    36    43    44    1
    37    43    45   ar
    38    45    46   ar
    39     4     5   ar
    40     5     6   ar
    41     6     7    2
    42    12    13   ar
    43    13    14   ar
    44    14    10   ar
    45     6     1   ar
    46    30    25   ar
    47    46    40   ar
    48    37    31   ar
    49    21    22    1
    50    21    23    1
@<TRIPOS>MOLECULE
*****
 46 50 0 0 0
SMALL
GASTEIGER

@<TRIPOS>ATOM
      1 C          63.5008   84.1525   13.6233 C.ar    1  UNL1        0.0574
      2 C          62.5679   85.2171   13.1271 C.ar    1  UNL1        0.0786
      3 N          62.2049   85.2779   11.6730 N.ar    1  UNL1       -0.2979
      4 C          62.7748   84.2742   10.7151 C.ar    1  UNL1        0.1750
      5 N          63.7078   83.2096   11.2112 N.ar    1  UNL1       -0.1847
      6 C          64.0708   83.1488   12.6653 C.ar    1  UNL1        0.2786
      7 O          65.0038   82.0841   13.1615 O.2     1  UNL1       -0.2654
      8 C          63.8639   84.0916   15.0774 C.3     1  UNL1        0.0622
      9 C          63.1601   88.8172   17.3254 C.3     1  UNL1        0.1537
     10 N          63.0839   87.3458   17.0437 N.ar    1  UNL1       -0.2477
     11 C          63.7523   86.6299   15.9077 C.ar    1  UNL1        0.0927
     12 C          63.4074   85.1737   16.0104 C.ar    1  UNL1        0.0220
     13 C          62.5257   84.9897   17.2100 C.ar    1  UNL1        0.1177
     14 N          62.3258   86.3321   17.8486 N.ar    1  UNL1       -0.1679
     15 C          61.2719   86.3426   11.1768 C.3     1  UNL1        0.1934
     16 C          61.7168   87.7747   11.1459 C.2     1  UNL1        0.2491
     17 O          63.1638   88.1061   10.9301 O.2     1  UNL1       -0.2727
     18 N          60.7148   88.8755   11.3307 N.am    1  UNL1       -0.2724
     19 C          59.2678   88.5442   11.5464 C.3     1  UNL1        0.1106
     20 C          58.5565   89.0494   12.7666 C.3     1  UNL1        0.0869
     21 N          57.1860   88.5396   13.1007 N.3     1  UNL1       -0.3197
     22 H          56.5270   88.8399   12.3824 H       1  UNL1        0.1189
     23 H          56.8960   88.9116   14.0051 H       1  UNL1        0.1189
     24 C          61.1597   90.3077   11.2997 C.3     1  UNL1        0.1202
     25 C          62.4122   90.7196   12.0151 C.ar    1  UNL1       -0.0023
     26 C          63.4700   91.4961   11.2885 C.ar    1  UNL1       -0.0026
     27 C          64.7225   91.9080   12.0037 C.ar    1  UNL1       -0.0003
     28 C          64.9171   91.5434   13.4456 C.ar    1  UNL1       -0.0000
     29 C          63.8592   90.7669   14.1723 C.ar    1  UNL1       -0.0003
     30 C          62.6068   90.3550   13.4570 C.ar    1  UNL1       -0.0026
     31 C          66.1696   91.9553   14.1610 C.ar    1  UNL1        0.0001
     32 C          66.0984   92.4414   15.5783 C.ar    1  UNL1        0.0009
     33 C          67.3508   92.8533   16.2936 C.ar    1  UNL1        0.0114
     34 C          68.6744   92.7791   15.5917 C.ar    1  UNL1        0.0577
     35 CL         69.9269   93.1910   16.3071 Cl      1  UNL1       -0.0822
     36 C          68.7455   92.2930   14.1744 C.ar    1  UNL1        0.0114
     37 C          67.4931   91.8811   13.4591 C.ar    1  UNL1        0.0009
     38 S          62.4118   84.3352    9.2609 S.3     1  UNL1       -0.0724
     39 C          62.5945   85.6119    8.4951 C.3     1  UNL1        0.0913
     40 C          61.4024   86.4501    8.1392 C.ar    1  UNL1       -0.0108
     41 C          61.4787   87.9446    8.2424 C.ar    1  UNL1       -0.0011
     42 C          60.2867   88.7827    7.8864 C.ar    1  UNL1        0.0293
     43 C          59.0185   88.1264    7.4273 C.ar    1  UNL1        0.1401
     44 F          57.8265   88.9646    7.0713 F       1  UNL1       -0.2042
     45 C          58.9423   86.6319    7.3241 C.ar    1  UNL1        0.0293
     46 C          60.1342   85.7938    7.6800 C.ar    1  UNL1       -0.0011
@<TRIPOS>BOND
     1     9    10    1
     2    10    11   ar
     3    11    12   ar
     4    12     8    1
     5     8     1    1
     6     1     2   ar
     7     2     3   ar
     8     3    15    1
     9    15    16    1
    10    16    17    2
    11    16    18   am
    12    18    19    1
    13    19    20    1
    14    20    21    1
    15    18    24    1
    16    24    25    1
    17    25    26   ar
    18    26    27   ar
    19    27    28   ar
    20    28    31    1
    21    31    32   ar
    22    32    33   ar
    23    33    34   ar
    24    34    35    1
    25    34    36   ar
    26    36    37   ar
    27    28    29   ar
    28    29    30   ar
    29     3     4   ar
    30     4    38    1
    31    38    39    1
    32    39    40    1
    33    40    41   ar
    34    41    42   ar
    35    42    43   ar
    36    43    44    1
    37    43    45   ar
    38    45    46   ar
    39     4     5   ar
    40     5     6   ar
    41     6     7    2
    42    12    13   ar
    43    13    14   ar
    44    14    10   ar
    45     6     1   ar
    46    30    25   ar
    47    46    40   ar
    48    37    31   ar
    49    21    22    1
    50    21    23    1
@<TRIPOS>MOLECULE
*****
 46 50 0 0 0
SMALL
GASTEIGER

@<TRIPOS>ATOM
      1 C          62.6187   85.0269    8.3939 C.ar    1  UNL1        0.0574
      2 C          62.1202   86.0809    9.3376 C.ar    1  UNL1        0.0786
      3 N          60.9911   86.9799    8.9291 N.ar    1  UNL1       -0.2979
      4 C          60.3605   86.8249    7.5769 C.ar    1  UNL1        0.1750
      5 N          60.8590   85.7709    6.6333 N.ar    1  UNL1       -0.1847
      6 C          61.9881   84.8719    7.0418 C.ar    1  UNL1        0.2786
      7 O          62.4866   83.8178    6.0981 O.2     1  UNL1       -0.2654
      8 C          63.7478   84.1278    8.8024 C.3     1  UNL1        0.0622
      9 C          63.8254   83.1754   13.9954 C.3     1  UNL1        0.1537
     10 N          63.7376   82.9814   12.5106 N.ar    1  UNL1       -0.2477
     11 C          63.8469   84.0587   11.4727 C.ar    1  UNL1        0.0927
     12 C          63.7019   83.4191   10.1237 C.ar    1  UNL1        0.0220
     13 C          63.5029   81.9465   10.3278 C.ar    1  UNL1        0.1177
     14 N          63.5250   81.6759   11.8031 N.ar    1  UNL1       -0.1679
     15 C          60.4926   88.0340    9.8727 C.3     1  UNL1        0.1934
     16 C          61.0006   88.0787   11.2834 C.2     1  UNL1        0.2491
     17 O          61.6052   86.8531   11.9020 O.2     1  UNL1       -0.2727
     18 N          60.9040   89.3488   12.0754 N.am    1  UNL1       -0.2724
     19 C          60.2994   90.5744   11.4568 C.3     1  UNL1        0.1106
     20 C          58.8402   90.8669   11.6439 C.3     1  UNL1        0.0869
     21 N          58.3669   92.2866   11.7455 N.3     1  UNL1       -0.3197
     22 H          58.7361   92.7079   12.5980 H       1  UNL1        0.1189
     23 H          57.3474   92.3041   11.7716 H       1  UNL1        0.1189
     24 C          61.4121   89.3935   13.4861 C.3     1  UNL1        0.1202
     25 C          62.7235   90.0551   13.7903 C.ar    1  UNL1       -0.0023
     26 C          63.4387   90.8288   12.7227 C.ar    1  UNL1       -0.0026
     27 C          64.7500   91.4904   13.0269 C.ar    1  UNL1       -0.0003
     28 C          65.3462   91.3784   14.3987 C.ar    1  UNL1       -0.0000
     29 C          64.6310   90.6047   15.4664 C.ar    1  UNL1       -0.0003
     30 C          63.3196   89.9431   15.1622 C.ar    1  UNL1       -0.0026
     31 C          66.6576   92.0400   14.7030 C.ar    1  UNL1        0.0001
     32 C          67.8564   91.7580   13.8466 C.ar    1  UNL1        0.0009
     33 C          69.1678   92.4196   14.1508 C.ar    1  UNL1        0.0114
     34 C          69.2803   93.3632   15.3114 C.ar    1  UNL1        0.0577
     35 CL         70.5918   94.0248   15.6156 Cl      1  UNL1       -0.0822
     36 C          68.0815   93.6451   16.1677 C.ar    1  UNL1        0.0114
     37 C          66.7702   92.9835   15.8635 C.ar    1  UNL1        0.0009
     38 S          59.2314   87.7240    7.1684 S.3     1  UNL1       -0.0724
     39 C          59.3308   89.2033    7.3956 C.3     1  UNL1        0.0913
     40 C          59.3238   90.1438    6.2270 C.ar    1  UNL1       -0.0108
     41 C          58.0310   90.7341    5.7471 C.ar    1  UNL1       -0.0011
     42 C          58.0241   91.6745    4.5786 C.ar    1  UNL1        0.0293
     43 C          59.3098   92.0245    3.8899 C.ar    1  UNL1        0.1401
     44 F          59.3028   92.9650    2.7213 F       1  UNL1       -0.2042
     45 C          60.6026   91.4342    4.3697 C.ar    1  UNL1        0.0293
     46 C          60.6095   90.4938    5.5383 C.ar    1  UNL1       -0.0011
@<TRIPOS>BOND
     1     9    10    1
     2    10    11   ar
     3    11    12   ar
     4    12     8    1
     5     8     1    1
     6     1     2   ar
     7     2     3   ar
     8     3    15    1
     9    15    16    1
    10    16    17    2
    11    16    18   am
    12    18    19    1
    13    19    20    1
    14    20    21    1
    15    18    24    1
    16    24    25    1
    17    25    26   ar
    18    26    27   ar
    19    27    28   ar
    20    28    31    1
    21    31    32   ar
    22    32    33   ar
    23    33    34   ar
    24    34    35    1
    25    34    36   ar
    26    36    37   ar
    27    28    29   ar
    28    29    30   ar
    29     3     4   ar
    30     4    38    1
    31    38    39    1
    32    39    40    1
    33    40    41   ar
    34    41    42   ar
    35    42    43   ar
    36    43    44    1
    37    43    45   ar
    38    45    46   ar
    39     4     5   ar
    40     5     6   ar
    41     6     7    2
    42    12    13   ar
    43    13    14   ar
    44    14    10   ar
    45     6     1   ar
    46    30    25   ar
    47    46    40   ar
    48    37    31   ar
    49    21    22    1
    50    21    23    1
