@<TRIPOS>MOLECULE
*****
 28 30 0 0 0
SMALL
GASTEIGER

@<TRIPOS>ATOM
      1 C          63.8466   86.7375   15.4869 C.ar    1  UNL1        0.1534
      2 C          64.1906   87.5717   14.2888 C.ar    1  UNL1        0.0351
      3 C          64.0520   89.0640   14.3492 C.ar    1  UNL1        0.0722
      4 CL         64.3959   89.8984   13.1510 Cl      1  UNL1       -0.0809
      5 C          63.5694   89.7221   15.6078 C.ar    1  UNL1        0.0577
      6 C          63.2254   88.8878   16.8060 C.ar    1  UNL1        0.0462
      7 C          63.3640   87.3955   16.7455 C.ar    1  UNL1        0.1602
      8 F          63.0201   86.5612   17.9437 F       1  UNL1       -0.2027
      9 O          65.4252   85.3947   15.0342 O.2     1  UNL1       -0.1498
     10 S          63.9852   85.2450   15.4266 S.O2    1  UNL1        0.0772
     11 O          62.5453   85.0954   15.8189 O.2     1  UNL1       -0.1498
     12 N          64.1239   83.7527   15.3662 N.pl3   1  UNL1       -0.1936
     13 H          64.6571   83.2800   16.0455 H       1  UNL1        0.1758
     14 C          63.4501   82.9806   14.2707 C.ar    1  UNL1        0.1786
     15 N          62.8017   81.6352   14.4105 N.ar    1  UNL1       -0.2214
     16 C          62.2573   81.2414   13.0694 C.ar    1  UNL1        0.1079
     17 C          62.5694   82.3435   12.1007 C.ar    1  UNL1        0.0588
     18 S          63.3066   83.4183   12.8432 S.2     1  UNL1       -0.0497
     19 N          63.4308   91.2145   15.6682 N.pl3   1  UNL1       -0.3319
     20 H          62.8544   91.6819   15.0212 H       1  UNL1        0.1468
     21 C          64.1703   91.9947   16.7142 C.3     1  UNL1        0.0896
     22 C          65.5855   92.4265   16.4672 C.3     1  UNL1        0.0507
     23 C          66.1483   92.3922   15.0772 C.3     1  UNL1        0.1169
     24 C          67.4545   91.7036   14.8137 C.3     1  UNL1        0.0297
     25 C          68.0173   91.6693   13.4237 C.3     1  UNL1        0.0051
     26 C          67.2738   92.3237   12.2971 C.3     1  UNL1        0.0322
     27 C          65.9675   93.0124   12.5607 C.3     1  UNL1        0.1421
     28 O          65.4048   93.0466   13.9507 O.3     1  UNL1       -0.3562
@<TRIPOS>BOND
     1     9    10    2
     2    10    11    2
     3    10    12    1
     4    12    14    1
     5    14    15   ar
     6    15    16   ar
     7    16    17   ar
     8    17    18   ar
     9    10     1    1
    10     1     2   ar
    11     2     3   ar
    12     3     4    1
    13     3     5   ar
    14     5    19    1
    15    19    21    1
    16    21    22    1
    17    22    23    1
    18    23    24    1
    19    24    25    1
    20    25    26    1
    21    26    27    1
    22    27    28    1
    23     5     6   ar
    24     6     7   ar
    25     7     8    1
    26    18    14   ar
    27     7     1   ar
    28    28    23    1
    29    12    13    1
    30    19    20    1
@<TRIPOS>MOLECULE
*****
 28 30 0 0 0
SMALL
GASTEIGER

@<TRIPOS>ATOM
      1 C          63.5238   90.7091   11.7599 C.ar    1  UNL1        0.1534
      2 C          62.4895   90.7748   10.6755 C.ar    1  UNL1        0.0351
      3 C          61.5873   89.6024   10.4277 C.ar    1  UNL1        0.0722
      4 CL         60.5529   89.6680    9.3433 Cl      1  UNL1       -0.0809
      5 C          61.7194   88.3643   11.2642 C.ar    1  UNL1        0.0577
      6 C          62.7537   88.2987   12.3486 C.ar    1  UNL1        0.0462
      7 C          63.6559   89.4711   12.5964 C.ar    1  UNL1        0.1602
      8 F          64.6903   89.4055   13.6808 F       1  UNL1       -0.2027
      9 O          64.8620   91.8494   10.5729 O.2     1  UNL1       -0.1498
     10 S          64.4261   91.8816   12.0077 S.O2    1  UNL1        0.0772
     11 O          63.9902   91.9138   13.4426 O.2     1  UNL1       -0.1498
     12 N          65.3283   93.0540   12.2555 N.pl3   1  UNL1       -0.1936
     13 H          65.2522   93.8606   11.6962 H       1  UNL1        0.1758
     14 C          66.3466   92.9974   13.3556 C.ar    1  UNL1        0.1786
     15 N          66.4254   93.9240   14.5325 N.ar    1  UNL1       -0.2214
     16 C          67.5923   93.5036   15.3761 C.ar    1  UNL1        0.1079
     17 C          68.2347   92.3171   14.7205 C.ar    1  UNL1        0.0588
     18 S          67.4647   92.0043   13.4717 S.2     1  UNL1       -0.0497
     19 N          60.8171   87.1919   11.0163 N.pl3   1  UNL1       -0.3319
     20 H          60.0905   86.9876   11.6485 H       1  UNL1        0.1468
     21 C          61.0220   86.3307    9.8054 C.3     1  UNL1        0.0896
     22 C          62.3547   85.6880    9.5588 C.3     1  UNL1        0.0507
     23 C          62.8837   84.6656   10.5204 C.3     1  UNL1        0.1169
     24 C          63.8204   83.5974   10.0392 C.3     1  UNL1        0.0297
     25 C          64.3494   82.5749   11.0008 C.3     1  UNL1        0.0051
     26 C          63.9417   82.6206   12.4437 C.3     1  UNL1        0.0322
     27 C          63.0051   83.6889   12.9249 C.3     1  UNL1        0.1421
     28 O          62.4761   84.7114   11.9632 O.3     1  UNL1       -0.3562
@<TRIPOS>BOND
     1     9    10    2
     2    10    11    2
     3    10    12    1
     4    12    14    1
     5    14    15   ar
     6    15    16   ar
     7    16    17   ar
     8    17    18   ar
     9    10     1    1
    10     1     2   ar
    11     2     3   ar
    12     3     4    1
    13     3     5   ar
    14     5    19    1
    15    19    21    1
    16    21    22    1
    17    22    23    1
    18    23    24    1
    19    24    25    1
    20    25    26    1
    21    26    27    1
    22    27    28    1
    23     5     6   ar
    24     6     7   ar
    25     7     8    1
    26    18    14   ar
    27     7     1   ar
    28    28    23    1
    29    12    13    1
    30    19    20    1
@<TRIPOS>MOLECULE
*****
 28 30 0 0 0
SMALL
GASTEIGER

@<TRIPOS>ATOM
      1 C          64.7261   91.6492   11.9372 C.ar    1  UNL1        0.1534
      2 C          63.7603   91.5318   10.7957 C.ar    1  UNL1        0.0351
      3 C          62.7580   90.4160   10.7730 C.ar    1  UNL1        0.0722
      4 CL         61.7921   90.2986    9.6314 Cl      1  UNL1       -0.0809
      5 C          62.7217   89.4177   11.8919 C.ar    1  UNL1        0.0577
      6 C          63.6876   89.5351   13.0335 C.ar    1  UNL1        0.0462
      7 C          64.6898   90.6509   13.0562 C.ar    1  UNL1        0.1602
      8 F          65.6557   90.7684   14.1978 F       1  UNL1       -0.2027
      9 O          65.3013   93.1203   13.3533 O.2     1  UNL1       -0.1498
     10 S          65.7284   92.7651   11.9599 S.O2    1  UNL1        0.0772
     11 O          66.1555   92.4098   10.5666 O.2     1  UNL1       -0.1498
     12 N          66.7306   93.8808   11.9827 N.pl3   1  UNL1       -0.1936
     13 H          67.3655   93.9571   12.7313 H       1  UNL1        0.1758
     14 C          66.7657   94.8805   10.8648 C.ar    1  UNL1        0.1786
     15 N          67.7587   94.9121    9.7411 N.ar    1  UNL1       -0.2214
     16 C          67.4206   96.0751    8.8562 C.ar    1  UNL1        0.1079
     17 C          66.2184   96.7623    9.4331 C.ar    1  UNL1        0.0588
     18 S          65.8137   96.0239   10.6745 S.2     1  UNL1       -0.0497
     19 N          61.7194   88.3019   11.8692 N.pl3   1  UNL1       -0.3319
     20 H          61.0254   88.2494   12.5655 H       1  UNL1        0.1468
     21 C          61.7746   87.2661   10.7857 C.3     1  UNL1        0.0896
     22 C          61.7047   85.8093   11.1364 C.3     1  UNL1        0.0507
     23 C          62.6978   85.2198   12.0936 C.3     1  UNL1        0.1169
     24 C          63.2465   83.8447   11.8527 C.3     1  UNL1        0.0297
     25 C          64.2396   83.2552   12.8098 C.3     1  UNL1        0.0051
     26 C          64.6840   84.0408   14.0080 C.3     1  UNL1        0.0322
     27 C          64.1353   85.4159   14.2489 C.3     1  UNL1        0.1421
     28 O          63.1421   86.0054   13.2916 O.3     1  UNL1       -0.3562
@<TRIPOS>BOND
     1     9    10    2
     2    10    11    2
     3    10    12    1
     4    12    14    1
     5    14    15   ar
     6    15    16   ar
     7    16    17   ar
     8    17    18   ar
     9    10     1    1
    10     1     2   ar
    11     2     3   ar
    12     3     4    1
    13     3     5   ar
    14     5    19    1
    15    19    21    1
    16    21    22    1
    17    22    23    1
    18    23    24    1
    19    24    25    1
    20    25    26    1
    21    26    27    1
    22    27    28    1
    23     5     6   ar
    24     6     7   ar
    25     7     8    1
    26    18    14   ar
    27     7     1   ar
    28    28    23    1
    29    12    13    1
    30    19    20    1
@<TRIPOS>MOLECULE
*****
 28 30 0 0 0
SMALL
GASTEIGER

@<TRIPOS>ATOM
      1 C          62.6288   89.8626   12.0630 C.ar    1  UNL1        0.1534
      2 C          63.0404   89.8542   13.5054 C.ar    1  UNL1        0.0351
      3 C          64.1016   90.7981   13.9879 C.ar    1  UNL1        0.0722
      4 CL         64.5133   90.7897   15.4304 Cl      1  UNL1       -0.0809
      5 C          64.7512   91.7504   13.0281 C.ar    1  UNL1        0.0577
      6 C          64.3396   91.7588   11.5858 C.ar    1  UNL1        0.0462
      7 C          63.2784   90.8149   11.1032 C.ar    1  UNL1        0.1602
      8 F          62.8668   90.8233    9.6608 F       1  UNL1       -0.2027
      9 O          60.5275   89.7139   12.3124 O.2     1  UNL1       -0.1498
     10 S          61.5676   88.9187   11.5804 S.O2    1  UNL1        0.0772
     11 O          62.6076   88.1236   10.8483 O.2     1  UNL1       -0.1498
     12 N          60.5063   87.9749   11.0978 N.pl3   1  UNL1       -0.1936
     13 H          60.0859   87.3441   11.7259 H       1  UNL1        0.1758
     14 C          60.0856   87.9921    9.6580 C.ar    1  UNL1        0.1786
     15 N          59.8975   89.2143    8.8090 N.ar    1  UNL1       -0.2214
     16 C          59.4748   88.7677    7.4408 C.ar    1  UNL1        0.1079
     17 C          59.4017   87.2694    7.4443 C.ar    1  UNL1        0.0588
     18 S          59.7792   86.7901    8.8147 S.2     1  UNL1       -0.0497
     19 N          65.8125   92.6943   13.5108 N.pl3   1  UNL1       -0.3319
     20 H          65.5819   93.6278   13.7219 H       1  UNL1        0.1468
     21 C          67.2249   92.2158   13.6717 C.3     1  UNL1        0.0896
     22 C          68.0199   91.8061   12.4674 C.3     1  UNL1        0.0507
     23 C          67.9046   92.5865   11.1916 C.3     1  UNL1        0.1169
     24 C          68.5086   92.0507    9.9275 C.3     1  UNL1        0.0297
     25 C          68.3933   92.8311    8.6517 C.3     1  UNL1        0.0051
     26 C          67.6739   94.1473    8.6400 C.3     1  UNL1        0.0322
     27 C          67.0699   94.6831    9.9042 C.3     1  UNL1        0.1421
     28 O          67.1852   93.9026   11.1800 O.3     1  UNL1       -0.3562
@<TRIPOS>BOND
     1     9    10    2
     2    10    11    2
     3    10    12    1
     4    12    14    1
     5    14    15   ar
     6    15    16   ar
     7    16    17   ar
     8    17    18   ar
     9    10     1    1
    10     1     2   ar
    11     2     3   ar
    12     3     4    1
    13     3     5   ar
    14     5    19    1
    15    19    21    1
    16    21    22    1
    17    22    23    1
    18    23    24    1
    19    24    25    1
    20    25    26    1
    21    26    27    1
    22    27    28    1
    23     5     6   ar
    24     6     7   ar
    25     7     8    1
    26    18    14   ar
    27     7     1   ar
    28    28    23    1
    29    12    13    1
    30    19    20    1
@<TRIPOS>MOLECULE
*****
 28 30 0 0 0
SMALL
GASTEIGER

@<TRIPOS>ATOM
      1 C          63.8620   86.6335   13.9273 C.ar    1  UNL1        0.1534
      2 C          64.3069   87.7719   14.7968 C.ar    1  UNL1        0.0351
      3 C          64.1174   89.1865   14.3355 C.ar    1  UNL1        0.0722
      4 CL         64.5623   90.3249   15.2050 Cl      1  UNL1       -0.0809
      5 C          63.4831   89.4627   13.0046 C.ar    1  UNL1        0.0577
      6 C          63.0382   88.3244   12.1350 C.ar    1  UNL1        0.0462
      7 C          63.2277   86.9098   12.5964 C.ar    1  UNL1        0.1602
      8 F          62.7828   85.7713   11.7268 F       1  UNL1       -0.2027
      9 O          65.5345   85.3608   14.2150 O.2     1  UNL1       -0.1498
     10 S          64.0514   85.2188   14.3886 S.O2    1  UNL1        0.0772
     11 O          62.5683   85.0768   14.5623 O.2     1  UNL1       -0.1498
     12 N          64.2409   83.8041   14.8500 N.pl3   1  UNL1       -0.1936
     13 H          64.7771   83.6162   15.6539 H       1  UNL1        0.1758
     14 C          63.6133   82.6758   14.0863 C.ar    1  UNL1        0.1786
     15 N          62.5819   81.7218   14.6116 N.ar    1  UNL1       -0.2214
     16 C          62.2382   80.7598   13.5133 C.ar    1  UNL1        0.1079
     17 C          63.0572   81.1192   12.3091 C.ar    1  UNL1        0.0588
     18 S          63.9072   82.3035   12.6633 S.2     1  UNL1       -0.0497
     19 N          63.2937   90.8775   12.5432 N.pl3   1  UNL1       -0.3319
     20 H          62.5323   91.4058   12.8755 H       1  UNL1        0.1468
     21 C          64.2642   91.4871   11.5756 C.3     1  UNL1        0.0896
     22 C          65.3491   92.3956   12.0735 C.3     1  UNL1        0.0507
     23 C          66.1920   93.1621   11.0979 C.3     1  UNL1        0.1169
     24 C          67.2402   92.4526   10.2930 C.3     1  UNL1        0.0297
     25 C          68.0831   93.2190    9.3173 C.3     1  UNL1        0.0051
     26 C          67.8779   94.6951    9.1465 C.3     1  UNL1        0.0322
     27 C          66.8297   95.4047    9.9514 C.3     1  UNL1        0.1421
     28 O          65.9867   94.6381   10.9271 O.3     1  UNL1       -0.3562
@<TRIPOS>BOND
     1     9    10    2
     2    10    11    2
     3    10    12    1
     4    12    14    1
     5    14    15   ar
     6    15    16   ar
     7    16    17   ar
     8    17    18   ar
     9    10     1    1
    10     1     2   ar
    11     2     3   ar
    12     3     4    1
    13     3     5   ar
    14     5    19    1
    15    19    21    1
    16    21    22    1
    17    22    23    1
    18    23    24    1
    19    24    25    1
    20    25    26    1
    21    26    27    1
    22    27    28    1
    23     5     6   ar
    24     6     7   ar
    25     7     8    1
    26    18    14   ar
    27     7     1   ar
    28    28    23    1
    29    12    13    1
    30    19    20    1
@<TRIPOS>MOLECULE
*****
 28 30 0 0 0
SMALL
GASTEIGER

@<TRIPOS>ATOM
      1 C          63.0703   90.2827   12.6131 C.ar    1  UNL1        0.1534
      2 C          61.7149   89.6868   12.8533 C.ar    1  UNL1        0.0351
      3 C          60.7250   89.5977   11.7299 C.ar    1  UNL1        0.0722
      4 CL         59.3696   89.0018   11.9701 Cl      1  UNL1       -0.0809
      5 C          61.0905   90.1046   10.3663 C.ar    1  UNL1        0.0577
      6 C          62.4459   90.7006   10.1261 C.ar    1  UNL1        0.0462
      7 C          63.4358   90.7896   11.2495 C.ar    1  UNL1        0.1602
      8 F          64.7913   91.3856   11.0093 F       1  UNL1       -0.2027
      9 O          64.1915   88.8776   13.7393 O.2     1  UNL1       -0.1498
     10 S          64.0603   90.3718   13.7366 S.O2    1  UNL1        0.0772
     11 O          63.9290   91.8660   13.7338 O.2     1  UNL1       -0.1498
     12 N          65.0502   90.4608   14.8600 N.pl3   1  UNL1       -0.1936
     13 H          64.9879   89.8397   15.6213 H       1  UNL1        0.1758
     14 C          66.1351   91.4961   14.8234 C.ar    1  UNL1        0.1786
     15 N          67.1623   91.6590   13.7425 N.ar    1  UNL1       -0.2214
     16 C          68.0452   92.8138   14.1124 C.ar    1  UNL1        0.1079
     17 C          67.5637   93.3647   15.4220 C.ar    1  UNL1        0.0588
     18 S          66.3831   92.5502   15.8614 S.2     1  UNL1       -0.0497
     19 N          60.1005   90.0156    9.2428 N.pl3   1  UNL1       -0.3319
     20 H          59.4266   90.7232    9.1233 H       1  UNL1        0.1468
     21 C          60.1374   88.8483    8.3015 C.3     1  UNL1        0.0896
     22 C          59.7987   87.4738    8.7975 C.3     1  UNL1        0.0507
     23 C          60.8849   86.5679    9.2969 C.3     1  UNL1        0.1169
     24 C          61.8777   85.9860    8.3347 C.3     1  UNL1        0.0297
     25 C          62.9639   85.0801    8.8341 C.3     1  UNL1        0.0051
     26 C          63.0574   84.7560   10.2957 C.3     1  UNL1        0.0322
     27 C          62.0646   85.3379   11.2579 C.3     1  UNL1        0.1421
     28 O          60.9783   86.2438   10.7585 O.3     1  UNL1       -0.3562
@<TRIPOS>BOND
     1     9    10    2
     2    10    11    2
     3    10    12    1
     4    12    14    1
     5    14    15   ar
     6    15    16   ar
     7    16    17   ar
     8    17    18   ar
     9    10     1    1
    10     1     2   ar
    11     2     3   ar
    12     3     4    1
    13     3     5   ar
    14     5    19    1
    15    19    21    1
    16    21    22    1
    17    22    23    1
    18    23    24    1
    19    24    25    1
    20    25    26    1
    21    26    27    1
    22    27    28    1
    23     5     6   ar
    24     6     7   ar
    25     7     8    1
    26    18    14   ar
    27     7     1   ar
    28    28    23    1
    29    12    13    1
    30    19    20    1
@<TRIPOS>MOLECULE
*****
 28 30 0 0 0
SMALL
GASTEIGER

@<TRIPOS>ATOM
      1 C          64.8434   91.7211   12.0713 C.ar    1  UNL1        0.1534
      2 C          64.9067   90.7369   13.2014 C.ar    1  UNL1        0.0351
      3 C          63.9734   89.5630   13.2267 C.ar    1  UNL1        0.0722
      4 CL         64.0366   88.5787   14.3569 Cl      1  UNL1       -0.0809
      5 C          62.9767   89.3732   12.1218 C.ar    1  UNL1        0.0577
      6 C          62.9135   90.3574   10.9917 C.ar    1  UNL1        0.0462
      7 C          63.8468   91.5314   10.9664 C.ar    1  UNL1        0.1602
      8 F          63.7835   92.5156    9.8362 F       1  UNL1       -0.2027
      9 O          66.1782   92.5457   10.6436 O.2     1  UNL1       -0.1498
     10 S          65.7768   92.8951   12.0459 S.O2    1  UNL1        0.0772
     11 O          65.3753   93.2446   13.4483 O.2     1  UNL1       -0.1498
     12 N          66.7101   94.0691   12.0206 N.pl3   1  UNL1       -0.1936
     13 H          67.3142   94.2342   12.7802 H       1  UNL1        0.1758
     14 C          66.7230   94.9916   10.8378 C.ar    1  UNL1        0.1786
     15 N          67.7435   95.0016    9.7385 N.ar    1  UNL1       -0.2214
     16 C          67.3689   96.0822    8.7680 C.ar    1  UNL1        0.1079
     17 C          66.1167   96.7401    9.2675 C.ar    1  UNL1        0.0588
     18 S          65.7175   96.0660   10.5467 S.2     1  UNL1       -0.0497
     19 N          62.0434   88.1992   12.1471 N.pl3   1  UNL1       -0.3319
     20 H          61.9195   87.6867   12.9785 H       1  UNL1        0.1468
     21 C          61.2989   87.8060   10.9057 C.3     1  UNL1        0.0896
     22 C          61.6442   86.5301   10.1964 C.3     1  UNL1        0.0507
     23 C          62.3634   85.4361   10.9284 C.3     1  UNL1        0.1169
     24 C          63.1997   84.4494   10.1688 C.3     1  UNL1        0.0297
     25 C          63.9189   83.3553   10.9008 C.3     1  UNL1        0.0051
     26 C          63.8018   83.2480   12.3924 C.3     1  UNL1        0.0322
     27 C          62.9655   84.2347   13.1520 C.3     1  UNL1        0.1421
     28 O          62.2463   85.3288   12.4199 O.3     1  UNL1       -0.3562
@<TRIPOS>BOND
     1     9    10    2
     2    10    11    2
     3    10    12    1
     4    12    14    1
     5    14    15   ar
     6    15    16   ar
     7    16    17   ar
     8    17    18   ar
     9    10     1    1
    10     1     2   ar
    11     2     3   ar
    12     3     4    1
    13     3     5   ar
    14     5    19    1
    15    19    21    1
    16    21    22    1
    17    22    23    1
    18    23    24    1
    19    24    25    1
    20    25    26    1
    21    26    27    1
    22    27    28    1
    23     5     6   ar
    24     6     7   ar
    25     7     8    1
    26    18    14   ar
    27     7     1   ar
    28    28    23    1
    29    12    13    1
    30    19    20    1
@<TRIPOS>MOLECULE
*****
 28 30 0 0 0
SMALL
GASTEIGER

@<TRIPOS>ATOM
      1 C          63.0021   85.8583   12.6112 C.ar    1  UNL1        0.1534
      2 C          62.0897   85.7264   11.4281 C.ar    1  UNL1        0.0351
      3 C          61.7036   86.9426   10.6395 C.ar    1  UNL1        0.0722
      4 CL         60.7911   86.8107    9.4562 Cl      1  UNL1       -0.0809
      5 C          62.2300   88.2906   11.0341 C.ar    1  UNL1        0.0577
      6 C          63.1424   88.4225   12.2173 C.ar    1  UNL1        0.0462
      7 C          63.5285   87.2063   13.0059 C.ar    1  UNL1        0.1602
      8 F          64.4410   87.3382   14.1891 F       1  UNL1       -0.2027
      9 O          62.6952   85.2040   14.6056 O.2     1  UNL1       -0.1498
     10 S          63.3883   84.6421   13.3999 S.O2    1  UNL1        0.0772
     11 O          64.0813   84.0802   12.1941 O.2     1  UNL1       -0.1498
     12 N          63.7743   83.4260   14.1885 N.pl3   1  UNL1       -0.1936
     13 H          64.4966   83.4806   14.8553 H       1  UNL1        0.1758
     14 C          63.0599   82.1268   13.9613 C.ar    1  UNL1        0.1786
     15 N          63.6557   80.8851   13.3669 N.ar    1  UNL1       -0.2214
     16 C          62.5883   79.8321   13.3269 C.ar    1  UNL1        0.1079
     17 C          61.3327   80.4229   13.8965 C.ar    1  UNL1        0.0588
     18 S          61.6242   81.8411   14.2887 S.2     1  UNL1       -0.0497
     19 N          61.8439   89.5068   10.2454 N.pl3   1  UNL1       -0.3319
     20 H          61.3117   89.4114    9.4226 H       1  UNL1        0.1468
     21 C          62.2685   90.8682   10.7104 C.3     1  UNL1        0.0896
     22 C          63.5355   91.4778   10.1879 C.3     1  UNL1        0.0507
     23 C          64.4924   92.1435   11.1318 C.3     1  UNL1        0.1169
     24 C          64.6536   91.6211   12.5287 C.3     1  UNL1        0.0297
     25 C          65.6105   92.2868   13.4726 C.3     1  UNL1        0.0051
     26 C          66.4064   93.4749   13.0198 C.3     1  UNL1        0.0322
     27 C          66.2452   93.9973   11.6229 C.3     1  UNL1        0.1421
     28 O          65.2882   93.3316   10.6790 O.3     1  UNL1       -0.3562
@<TRIPOS>BOND
     1     9    10    2
     2    10    11    2
     3    10    12    1
     4    12    14    1
     5    14    15   ar
     6    15    16   ar
     7    16    17   ar
     8    17    18   ar
     9    10     1    1
    10     1     2   ar
    11     2     3   ar
    12     3     4    1
    13     3     5   ar
    14     5    19    1
    15    19    21    1
    16    21    22    1
    17    22    23    1
    18    23    24    1
    19    24    25    1
    20    25    26    1
    21    26    27    1
    22    27    28    1
    23     5     6   ar
    24     6     7   ar
    25     7     8    1
    26    18    14   ar
    27     7     1   ar
    28    28    23    1
    29    12    13    1
    30    19    20    1
@<TRIPOS>MOLECULE
*****
 28 30 0 0 0
SMALL
GASTEIGER

@<TRIPOS>ATOM
      1 C          63.7673   86.5715   14.3113 C.ar    1  UNL1        0.1534
      2 C          63.9748   87.6453   15.3378 C.ar    1  UNL1        0.0351
      3 C          63.8818   89.0892   14.9421 C.ar    1  UNL1        0.0722
      4 CL         64.0893   90.1631   15.9687 Cl      1  UNL1       -0.0809
      5 C          63.5815   89.4592   13.5199 C.ar    1  UNL1        0.0577
      6 C          63.3740   88.3855   12.4933 C.ar    1  UNL1        0.0462
      7 C          63.4669   86.9416   12.8890 C.ar    1  UNL1        0.1602
      8 F          63.2595   85.8677   11.8624 F       1  UNL1       -0.2027
      9 O          62.3652   85.0587   14.8065 O.2     1  UNL1       -0.1498
     10 S          63.8602   85.1276   14.7069 S.O2    1  UNL1        0.0772
     11 O          65.3553   85.1965   14.6074 O.2     1  UNL1       -0.1498
     12 N          63.9531   83.6837   15.1026 N.pl3   1  UNL1       -0.1936
     13 H          64.3953   83.4317   15.9453 H       1  UNL1        0.1758
     14 C          63.3722   82.6238   14.2143 C.ar    1  UNL1        0.1786
     15 N          62.3168   81.6304   14.6008 N.ar    1  UNL1       -0.2214
     16 C          62.0370   80.7638   13.4089 C.ar    1  UNL1        0.1079
     17 C          62.9195   81.2216   12.2856 C.ar    1  UNL1        0.0588
     18 S          63.7447   82.3712   12.7834 S.2     1  UNL1       -0.0497
     19 N          63.4885   90.9032   13.1242 N.pl3   1  UNL1       -0.3319
     20 H          62.7909   91.4770   13.5158 H       1  UNL1        0.1468
     21 C          64.4585   91.4728   12.1319 C.3     1  UNL1        0.0896
     22 C          65.2801   92.6752   12.4915 C.3     1  UNL1        0.0507
     23 C          66.3236   92.5769   13.5645 C.3     1  UNL1        0.1169
     24 C          65.9497   92.8114   14.9981 C.3     1  UNL1        0.0297
     25 C          66.9933   92.7131   16.0711 C.3     1  UNL1        0.0051
     26 C          68.4108   92.3803   15.7104 C.3     1  UNL1        0.0322
     27 C          68.7847   92.1459   14.2768 C.3     1  UNL1        0.1421
     28 O          67.7410   92.2442   13.2038 O.3     1  UNL1       -0.3562
@<TRIPOS>BOND
     1     9    10    2
     2    10    11    2
     3    10    12    1
     4    12    14    1
     5    14    15   ar
     6    15    16   ar
     7    16    17   ar
     8    17    18   ar
     9    10     1    1
    10     1     2   ar
    11     2     3   ar
    12     3     4    1
    13     3     5   ar
    14     5    19    1
    15    19    21    1
    16    21    22    1
    17    22    23    1
    18    23    24    1
    19    24    25    1
    20    25    26    1
    21    26    27    1
    22    27    28    1
    23     5     6   ar
    24     6     7   ar
    25     7     8    1
    26    18    14   ar
    27     7     1   ar
    28    28    23    1
    29    12    13    1
    30    19    20    1
