@<TRIPOS>MOLECULE
*****
 43 46 0 0 0
SMALL
GASTEIGER

@<TRIPOS>ATOM
      1 N          62.4395   89.8229   11.6847 N.3     1  UNL1       -0.2699
      2 C          63.5057   91.5496   10.0624 C.3     1  UNL1        0.0188
      3 C          62.2889   90.9259   10.6794 C.3     1  UNL1        0.0722
      4 C          62.4861   90.1441   13.1492 C.3     1  UNL1        0.0924
      5 C          63.7965   90.4631   13.8057 C.3     1  UNL1        0.0950
      6 N          64.8583   91.1984   13.0427 N.am    1  UNL1       -0.2706
      7 C          65.6296   92.3015   13.7046 C.2     1  UNL1        0.4019
      8 O          65.3392   92.6694   15.1295 O.2     1  UNL1       -0.2264
      9 H          65.0489   90.9569   12.1075 H       1  UNL1        0.1527
     10 O          66.6914   93.0367   12.9417 O.3     1  UNL1       -0.4299
     11 C          66.3299   93.8067   11.7061 C.3     1  UNL1        0.2361
     12 C          67.0704   93.5599   10.4252 C.2     1  UNL1        0.0461
     13 C          67.8126   92.3078   10.0629 C.2     1  UNL1        0.1188
     14 N          68.3996   92.4960    8.6955 N.2     1  UNL1       -0.1512
     15 N          68.0201   93.8645    8.2125 N.2     1  UNL1       -0.1697
     16 C          67.1986   94.5220    9.2816 C.3     1  UNL1        0.1765
     17 C          64.0452   90.0469   15.2252 C.3     1  UNL1        0.0474
     18 C          63.8483   88.6169   15.6329 C.ar    1  UNL1       -0.0205
     19 C          63.0821   88.2915   16.8808 C.ar    1  UNL1       -0.0042
     20 C          62.8852   86.8615   17.2885 C.ar    1  UNL1       -0.0003
     21 C          63.4544   85.7568   16.4484 C.ar    1  UNL1       -0.0000
     22 C          64.2206   86.0822   15.2005 C.ar    1  UNL1       -0.0003
     23 C          64.4175   87.5123   14.7928 C.ar    1  UNL1       -0.0042
     24 C          62.5434   88.3987   11.2255 C.3     1  UNL1        0.0924
     25 C          61.3793   87.7439   10.5429 C.3     1  UNL1        0.0950
     26 N          60.5437   88.5239    9.5717 N.am    1  UNL1       -0.2706
     27 C          59.8538   87.8195    8.4413 C.2     1  UNL1        0.4019
     28 O          59.9994   86.3351    8.2821 O.2     1  UNL1       -0.2264
     29 H          60.4481   89.4982    9.6761 H       1  UNL1        0.1527
     30 O          59.0182   88.5995    7.4700 O.3     1  UNL1       -0.4299
     31 C          59.6736   89.3376    6.3406 C.3     1  UNL1        0.2361
     32 C          58.9547   90.4684    5.6663 C.2     1  UNL1        0.0461
     33 C          59.5948   91.5892    4.9020 C.2     1  UNL1        0.1188
     34 N          58.5053   92.4904    4.4013 N.2     1  UNL1       -0.1512
     35 N          57.1918   91.9265    4.8561 N.2     1  UNL1       -0.1697
     36 C          57.4696   90.6769    5.6379 C.3     1  UNL1        0.1765
     37 C          61.0507   86.3091   10.8316 C.3     1  UNL1        0.0474
     38 C          62.1449   85.2842   10.8800 C.ar    1  UNL1       -0.0205
     39 C          62.5486   84.6794   12.1920 C.ar    1  UNL1       -0.0042
     40 C          63.6427   83.6545   12.2404 C.ar    1  UNL1       -0.0003
     41 C          64.3332   83.2344   10.9768 C.ar    1  UNL1       -0.0000
     42 C          63.9296   83.8391    9.6649 C.ar    1  UNL1       -0.0003
     43 C          62.8354   84.8641    9.6164 C.ar    1  UNL1       -0.0042
@<TRIPOS>BOND
     1     2     3    1
     2     3     1    1
     3     1    24    1
     4    25    24    1
     5    25    37    1
     6    37    38    1
     7    38    39   ar
     8    39    40   ar
     9    40    41   ar
    10    41    42   ar
    11    42    43   ar
    12    25    26    1
    13    26    27   am
    14    27    28    2
    15    27    30    1
    16    30    31    1
    17    31    32    1
    18    32    33    2
    19    33    34    1
    20    34    35    2
    21    35    36    1
    22     1     4    1
    23     5     4    1
    24     5    17    1
    25    17    18    1
    26    18    19   ar
    27    19    20   ar
    28    20    21   ar
    29    21    22   ar
    30    22    23   ar
    31     5     6    1
    32     6     7   am
    33     7     8    2
    34     7    10    1
    35    10    11    1
    36    11    12    1
    37    12    13    2
    38    13    14    1
    39    14    15    2
    40    15    16    1
    41    43    38   ar
    42    36    32    1
    43    23    18   ar
    44    16    12    1
    45    26    29    1
    46     6     9    1
@<TRIPOS>MOLECULE
*****
 43 46 0 0 0
SMALL
GASTEIGER

@<TRIPOS>ATOM
      1 N          62.4689   89.8382   11.6750 N.3     1  UNL1       -0.2699
      2 C          63.4736   91.5582   10.0070 C.3     1  UNL1        0.0188
      3 C          62.2796   90.9046   10.6372 C.3     1  UNL1        0.0722
      4 C          62.5461   88.3976   11.2645 C.3     1  UNL1        0.0924
      5 C          61.3767   87.7469   10.5871 C.3     1  UNL1        0.0950
      6 N          60.5284   88.5353    9.6336 N.am    1  UNL1       -0.2706
      7 C          59.8583   87.8476    8.4812 C.2     1  UNL1        0.4019
      8 O          60.0364   86.3716    8.2823 O.2     1  UNL1       -0.2264
      9 H          60.4115   89.5041    9.7642 H       1  UNL1        0.1527
     10 O          59.0101   88.6360    7.5278 O.3     1  UNL1       -0.4299
     11 C          59.6401   89.3114    6.3459 C.3     1  UNL1        0.2361
     12 C          58.9373   90.4519    5.6711 C.2     1  UNL1        0.0461
     13 C          57.4532   90.6619    5.6120 C.2     1  UNL1        0.1188
     14 N          57.1938   91.9224    4.8414 N.2     1  UNL1       -0.1512
     15 N          58.5176   92.4914    4.4242 N.2     1  UNL1       -0.1697
     16 C          59.5950   91.5825    4.9371 C.3     1  UNL1        0.1765
     17 C          61.0553   86.3080   10.8631 C.3     1  UNL1        0.0474
     18 C          62.1588   85.2952   10.9433 C.ar    1  UNL1       -0.0205
     19 C          62.8191   84.8044    9.6891 C.ar    1  UNL1       -0.0042
     20 C          63.9226   83.7916    9.7693 C.ar    1  UNL1       -0.0003
     21 C          64.3658   83.2694   11.1039 C.ar    1  UNL1       -0.0000
     22 C          63.7055   83.7602   12.3582 C.ar    1  UNL1       -0.0003
     23 C          62.6019   84.7730   12.2778 C.ar    1  UNL1       -0.0042
     24 C          62.5809   90.2125   13.1232 C.3     1  UNL1        0.0924
     25 C          63.9321   90.3987   13.7474 C.3     1  UNL1        0.0950
     26 N          65.0630   90.9566   12.9352 N.am    1  UNL1       -0.2706
     27 C          65.8078   92.1659   13.4177 C.2     1  UNL1        0.4019
     28 O          65.4216   92.8174   14.7124 O.2     1  UNL1       -0.2264
     29 H          65.3165   90.5290   12.0854 H       1  UNL1        0.1527
     30 O          66.9387   92.7238   12.6055 O.3     1  UNL1       -0.4299
     31 C          66.8948   92.6492   11.1080 C.3     1  UNL1        0.2361
     32 C          66.9234   93.9084   10.2932 C.2     1  UNL1        0.0461
     33 C          67.8415   94.1927    9.1416 C.2     1  UNL1        0.1188
     34 N          67.5245   95.5643    8.6237 N.2     1  UNL1       -0.1512
     35 N          66.4103   96.1276    9.4552 N.2     1  UNL1       -0.1697
     36 C          66.0388   95.1042   10.4870 C.3     1  UNL1        0.1765
     37 C          64.1523   90.0270   15.1839 C.3     1  UNL1        0.0474
     38 C          63.8863   88.6247   15.6449 C.ar    1  UNL1       -0.0205
     39 C          64.3984   87.4627   14.8464 C.ar    1  UNL1       -0.0042
     40 C          64.1323   86.0603   15.3075 C.ar    1  UNL1       -0.0003
     41 C          63.3542   85.8199   16.5671 C.ar    1  UNL1       -0.0000
     42 C          62.8421   86.9818   17.3657 C.ar    1  UNL1       -0.0003
     43 C          63.1081   88.3842   16.9046 C.ar    1  UNL1       -0.0042
@<TRIPOS>BOND
     1     2     3    1
     2     3     1    1
     3     1    24    1
     4    25    24    1
     5    25    37    1
     6    37    38    1
     7    38    39   ar
     8    39    40   ar
     9    40    41   ar
    10    41    42   ar
    11    42    43   ar
    12    25    26    1
    13    26    27   am
    14    27    28    2
    15    27    30    1
    16    30    31    1
    17    31    32    1
    18    32    33    2
    19    33    34    1
    20    34    35    2
    21    35    36    1
    22     1     4    1
    23     5     4    1
    24     5    17    1
    25    17    18    1
    26    18    19   ar
    27    19    20   ar
    28    20    21   ar
    29    21    22   ar
    30    22    23   ar
    31     5     6    1
    32     6     7   am
    33     7     8    2
    34     7    10    1
    35    10    11    1
    36    11    12    1
    37    12    13    2
    38    13    14    1
    39    14    15    2
    40    15    16    1
    41    43    38   ar
    42    36    32    1
    43    23    18   ar
    44    16    12    1
    45    26    29    1
    46     6     9    1
@<TRIPOS>MOLECULE
*****
 43 46 0 0 0
SMALL
GASTEIGER

@<TRIPOS>ATOM
      1 N          61.8872   89.1989   11.7650 N.3     1  UNL1       -0.2699
      2 C          59.5064   90.1955   11.4675 C.3     1  UNL1        0.0188
      3 C          60.5531   89.5702   12.3413 C.3     1  UNL1        0.0722
      4 C          62.1165   87.8141   11.2360 C.3     1  UNL1        0.0924
      5 C          61.9051   87.5230    9.7798 C.3     1  UNL1        0.0950
      6 N          61.0263   88.4171    8.9561 N.am    1  UNL1       -0.2706
      7 C          59.8252   87.8516    8.2578 C.2     1  UNL1        0.4019
      8 O          59.5029   86.3920    8.3833 O.2     1  UNL1       -0.2264
      9 H          61.2379   89.3750    8.8737 H       1  UNL1        0.1527
     10 O          58.9465   88.7456    7.4341 O.3     1  UNL1       -0.4299
     11 C          59.4214   89.2422    6.1007 C.3     1  UNL1        0.2361
     12 C          58.8410   90.4963    5.5173 C.2     1  UNL1        0.0461
     13 C          57.3846   90.8509    5.4616 C.2     1  UNL1        0.1188
     14 N          57.2585   92.1897    4.7971 N.2     1  UNL1       -0.1512
     15 N          58.6371   92.6626    4.4421 N.2     1  UNL1       -0.1697
     16 C          59.6151   91.6160    4.8873 C.3     1  UNL1        0.1765
     17 C          62.5724   86.3378    9.1473 C.3     1  UNL1        0.0474
     18 C          62.8368   85.1043    9.9588 C.ar    1  UNL1       -0.0205
     19 C          63.7735   84.0530    9.4419 C.ar    1  UNL1       -0.0042
     20 C          64.0379   82.8195   10.2534 C.ar    1  UNL1       -0.0003
     21 C          63.3655   82.6373   11.5819 C.ar    1  UNL1       -0.0000
     22 C          62.4287   83.6886   12.0987 C.ar    1  UNL1       -0.0003
     23 C          62.1643   84.9222   11.2872 C.ar    1  UNL1       -0.0042
     24 C          62.9921   90.2123   11.7177 C.3     1  UNL1        0.0924
     25 C          63.8813   90.4086   12.9097 C.3     1  UNL1        0.0950
     26 N          64.2801   89.2317   13.7498 N.am    1  UNL1       -0.2706
     27 C          63.4813   88.8749   14.9683 C.2     1  UNL1        0.4019
     28 O          62.2837   89.6950   15.3466 O.2     1  UNL1       -0.2264
     29 H          65.0661   88.6935   13.5015 H       1  UNL1        0.1527
     30 O          63.8801   87.6980   15.8084 O.3     1  UNL1       -0.4299
     31 C          64.6330   86.5568   15.1914 C.3     1  UNL1        0.2361
     32 C          64.0852   85.1630   15.2776 C.2     1  UNL1        0.0461
     33 C          64.7863   83.9114   14.8393 C.2     1  UNL1        0.1188
     34 N          63.8745   82.7510   15.1080 N.2     1  UNL1       -0.1512
     35 N          62.6099   83.2855   15.7124 N.2     1  UNL1       -0.1697
     36 C          62.7401   84.7761   15.8171 C.3     1  UNL1        0.1765
     37 C          64.3717   91.7819   13.2615 C.3     1  UNL1        0.0474
     38 C          65.6554   91.9486   14.0191 C.ar    1  UNL1       -0.0205
     39 C          65.6259   92.2250   15.4932 C.ar    1  UNL1       -0.0042
     40 C          66.9097   92.3917   16.2509 C.ar    1  UNL1       -0.0003
     41 C          68.2230   92.2820   15.5345 C.ar    1  UNL1       -0.0000
     42 C          68.2526   92.0056   14.0605 C.ar    1  UNL1       -0.0003
     43 C          66.9688   91.8389   13.3028 C.ar    1  UNL1       -0.0042
@<TRIPOS>BOND
     1     2     3    1
     2     3     1    1
     3     1    24    1
     4    25    24    1
     5    25    37    1
     6    37    38    1
     7    38    39   ar
     8    39    40   ar
     9    40    41   ar
    10    41    42   ar
    11    42    43   ar
    12    25    26    1
    13    26    27   am
    14    27    28    2
    15    27    30    1
    16    30    31    1
    17    31    32    1
    18    32    33    2
    19    33    34    1
    20    34    35    2
    21    35    36    1
    22     1     4    1
    23     5     4    1
    24     5    17    1
    25    17    18    1
    26    18    19   ar
    27    19    20   ar
    28    20    21   ar
    29    21    22   ar
    30    22    23   ar
    31     5     6    1
    32     6     7   am
    33     7     8    2
    34     7    10    1
    35    10    11    1
    36    11    12    1
    37    12    13    2
    38    13    14    1
    39    14    15    2
    40    15    16    1
    41    43    38   ar
    42    36    32    1
    43    23    18   ar
    44    16    12    1
    45    26    29    1
    46     6     9    1
@<TRIPOS>MOLECULE
*****
 43 46 0 0 0
SMALL
GASTEIGER

@<TRIPOS>ATOM
      1 N          63.7377   86.8615   16.0396 N.3     1  UNL1       -0.2699
      2 C          62.6593   86.8166   18.4029 C.3     1  UNL1        0.0188
      3 C          63.0885   86.0999   17.1570 C.3     1  UNL1        0.0722
      4 C          63.6130   88.3551   15.9783 C.3     1  UNL1        0.0924
      5 C          64.0744   89.0968   14.7590 C.3     1  UNL1        0.0950
      6 N          64.8700   90.3600   14.9058 N.am    1  UNL1       -0.2706
      7 C          64.4266   91.4175   15.8728 C.2     1  UNL1        0.4019
      8 O          63.1877   91.2118   16.6931 O.2     1  UNL1       -0.2264
      9 H          65.6831   90.4950   14.3674 H       1  UNL1        0.1527
     10 O          65.2221   92.6806   16.0195 O.3     1  UNL1       -0.4299
     11 C          66.6464   92.7287   15.5511 C.3     1  UNL1        0.2361
     12 C          66.9510   92.8232   14.0854 C.2     1  UNL1        0.0461
     13 C          67.8223   91.8853   13.3037 C.2     1  UNL1        0.1188
     14 N          67.8476   92.3547   11.8792 N.2     1  UNL1       -0.1512
     15 N          66.9919   93.5827   11.7806 N.2     1  UNL1       -0.1697
     16 C          66.4378   93.8723   13.1441 C.3     1  UNL1        0.1765
     17 C          63.7403   88.5754   13.3928 C.3     1  UNL1        0.0474
     18 C          63.4868   89.5325   12.2660 C.ar    1  UNL1       -0.0205
     19 C          62.4958   89.1847   11.1951 C.ar    1  UNL1       -0.0042
     20 C          62.2423   90.1418   10.0683 C.ar    1  UNL1       -0.0003
     21 C          62.9798   91.4468   10.0125 C.ar    1  UNL1       -0.0000
     22 C          63.9708   91.7947   11.0835 C.ar    1  UNL1       -0.0003
     23 C          64.2243   90.8375   12.2103 C.ar    1  UNL1       -0.0042
     24 C          64.5115   86.1296   14.9836 C.3     1  UNL1        0.0924
     25 C          63.8617   85.0201   14.2110 C.3     1  UNL1        0.0950
     26 N          62.7003   85.3148   13.3086 N.am    1  UNL1       -0.2706
     27 C          62.7812   84.9803   11.8486 C.2     1  UNL1        0.4019
     28 O          64.0234   84.3512   11.2910 O.2     1  UNL1       -0.2264
     29 H          61.8849   85.7277   13.6746 H       1  UNL1        0.1527
     30 O          61.6198   85.2750   10.9462 O.3     1  UNL1       -0.4299
     31 C          61.8511   85.9236    9.6137 C.3     1  UNL1        0.2361
     32 C          60.6862   86.4152    8.8065 C.2     1  UNL1        0.0461
     33 C          60.2160   85.8469    7.5004 C.2     1  UNL1        0.1188
     34 N          59.0263   86.6418    7.0504 N.2     1  UNL1       -0.1512
     35 N          58.7611   87.7015    8.0785 N.2     1  UNL1       -0.1697
     36 C          59.7870   87.5614    9.1638 C.3     1  UNL1        0.1765
     37 C          64.3732   83.6160   14.3409 C.3     1  UNL1        0.0474
     38 C          63.4721   82.4578   14.0305 C.ar    1  UNL1       -0.0205
     39 C          62.1051   82.3856   14.6440 C.ar    1  UNL1       -0.0042
     40 C          61.2040   81.2273   14.3336 C.ar    1  UNL1       -0.0003
     41 C          61.6697   80.1413   13.4098 C.ar    1  UNL1       -0.0000
     42 C          63.0365   80.2134   12.7963 C.ar    1  UNL1       -0.0003
     43 C          63.9378   81.3717   13.1066 C.ar    1  UNL1       -0.0042
@<TRIPOS>BOND
     1     2     3    1
     2     3     1    1
     3     1    24    1
     4    25    24    1
     5    25    37    1
     6    37    38    1
     7    38    39   ar
     8    39    40   ar
     9    40    41   ar
    10    41    42   ar
    11    42    43   ar
    12    25    26    1
    13    26    27   am
    14    27    28    2
    15    27    30    1
    16    30    31    1
    17    31    32    1
    18    32    33    2
    19    33    34    1
    20    34    35    2
    21    35    36    1
    22     1     4    1
    23     5     4    1
    24     5    17    1
    25    17    18    1
    26    18    19   ar
    27    19    20   ar
    28    20    21   ar
    29    21    22   ar
    30    22    23   ar
    31     5     6    1
    32     6     7   am
    33     7     8    2
    34     7    10    1
    35    10    11    1
    36    11    12    1
    37    12    13    2
    38    13    14    1
    39    14    15    2
    40    15    16    1
    41    43    38   ar
    42    36    32    1
    43    23    18   ar
    44    16    12    1
    45    26    29    1
    46     6     9    1
@<TRIPOS>MOLECULE
*****
 43 46 0 0 0
SMALL
GASTEIGER

@<TRIPOS>ATOM
      1 N          62.7159   89.9165   12.0396 N.3     1  UNL1       -0.2699
      2 C          63.7686   91.6025   10.3664 C.3     1  UNL1        0.0188
      3 C          62.5698   91.0742   11.0972 C.3     1  UNL1        0.0722
      4 C          63.0702   88.5585   11.5100 C.3     1  UNL1        0.0924
      5 C          62.0169   87.4957   11.4063 C.3     1  UNL1        0.0950
      6 N          62.3865   86.0532   11.5869 N.am    1  UNL1       -0.2706
      7 C          62.7751   85.2241   10.3988 C.2     1  UNL1        0.4019
      8 O          62.7940   85.8374    9.0301 O.2     1  UNL1       -0.2264
      9 H          62.3741   85.6506   12.4853 H       1  UNL1        0.1527
     10 O          63.1447   83.7816   10.5795 O.3     1  UNL1       -0.4299
     11 C          63.8875   83.3458   11.8077 C.3     1  UNL1        0.2361
     12 C          63.3826   82.1894   12.6187 C.2     1  UNL1        0.0461
     13 C          62.7794   80.9281   12.0754 C.2     1  UNL1        0.1188
     14 N          62.4162   80.0504   13.2363 N.2     1  UNL1       -0.1512
     15 N          62.7949   80.7694   14.4972 N.2     1  UNL1       -0.1697
     16 C          63.3922   82.0914   14.1155 C.3     1  UNL1        0.1765
     17 C          60.5938   87.8753   11.1220 C.3     1  UNL1        0.0474
     18 C          60.1179   87.9930    9.7044 C.ar    1  UNL1       -0.0205
     19 C          60.2193   89.3058    8.9858 C.ar    1  UNL1       -0.0042
     20 C          59.7433   89.4235    7.5682 C.ar    1  UNL1       -0.0003
     21 C          59.1660   88.2284    6.8691 C.ar    1  UNL1       -0.0000
     22 C          59.0647   86.9157    7.5878 C.ar    1  UNL1       -0.0003
     23 C          59.5406   86.7980    9.0054 C.ar    1  UNL1       -0.0042
     24 C          62.5078   90.1167   13.5115 C.3     1  UNL1        0.0924
     25 C          63.6878   90.1632   14.4363 C.3     1  UNL1        0.0950
     26 N          64.9810   90.7651   13.9724 N.am    1  UNL1       -0.2706
     27 C          65.6308   91.8548   14.7727 C.2     1  UNL1        0.4019
     28 O          64.9874   92.3425   16.0368 O.2     1  UNL1       -0.2264
     29 H          65.4033   90.4450   13.1427 H       1  UNL1        0.1527
     30 O          66.9240   92.4567   14.3088 O.3     1  UNL1       -0.4299
     31 C          67.4590   92.1267   12.9468 C.3     1  UNL1        0.2361
     32 C          67.0316   92.9345   11.7573 C.2     1  UNL1        0.0461
     33 C          66.1721   94.1634   11.7887 C.2     1  UNL1        0.1188
     34 N          65.9980   94.6435   10.3783 N.2     1  UNL1       -0.1512
     35 N          66.7500   93.7113    9.4752 N.2     1  UNL1       -0.1697
     36 C          67.3888   92.6551   10.3275 C.3     1  UNL1        0.1765
     37 C          63.5746   89.6077   15.8251 C.3     1  UNL1        0.0474
     38 C          63.5459   88.1234   16.0392 C.ar    1  UNL1       -0.0205
     39 C          62.8334   87.5508   17.2286 C.ar    1  UNL1       -0.0042
     40 C          62.8047   86.0664   17.4427 C.ar    1  UNL1       -0.0003
     41 C          63.4884   85.1547   16.4674 C.ar    1  UNL1       -0.0000
     42 C          64.2009   85.7272   15.2781 C.ar    1  UNL1       -0.0003
     43 C          64.2296   87.2116   15.0640 C.ar    1  UNL1       -0.0042
@<TRIPOS>BOND
     1     2     3    1
     2     3     1    1
     3     1    24    1
     4    25    24    1
     5    25    37    1
     6    37    38    1
     7    38    39   ar
     8    39    40   ar
     9    40    41   ar
    10    41    42   ar
    11    42    43   ar
    12    25    26    1
    13    26    27   am
    14    27    28    2
    15    27    30    1
    16    30    31    1
    17    31    32    1
    18    32    33    2
    19    33    34    1
    20    34    35    2
    21    35    36    1
    22     1     4    1
    23     5     4    1
    24     5    17    1
    25    17    18    1
    26    18    19   ar
    27    19    20   ar
    28    20    21   ar
    29    21    22   ar
    30    22    23   ar
    31     5     6    1
    32     6     7   am
    33     7     8    2
    34     7    10    1
    35    10    11    1
    36    11    12    1
    37    12    13    2
    38    13    14    1
    39    14    15    2
    40    15    16    1
    41    43    38   ar
    42    36    32    1
    43    23    18   ar
    44    16    12    1
    45    26    29    1
    46     6     9    1
@<TRIPOS>MOLECULE
*****
 43 46 0 0 0
SMALL
GASTEIGER

@<TRIPOS>ATOM
      1 N          62.0766   89.8251   11.7852 N.3     1  UNL1       -0.2699
      2 C          63.0761   91.4160    9.9906 C.3     1  UNL1        0.0188
      3 C          63.0316   90.0719   10.6551 C.3     1  UNL1        0.0722
      4 C          60.7090   89.2764   11.5052 C.3     1  UNL1        0.0924
      5 C          60.5585   87.9369   10.8472 C.3     1  UNL1        0.0950
      6 N          60.6093   86.6856   11.6730 N.am    1  UNL1       -0.2706
      7 C          61.9172   86.2072   12.2300 C.2     1  UNL1        0.4019
      8 O          63.1745   86.9799   11.9613 O.2     1  UNL1       -0.2264
      9 H          59.7841   86.1785   11.8494 H       1  UNL1        0.1527
     10 O          61.9679   84.9560   13.0558 O.3     1  UNL1       -0.4299
     11 C          63.0944   83.9824   12.8739 C.3     1  UNL1        0.2361
     12 C          62.8279   82.5075   12.9328 C.2     1  UNL1        0.0461
     13 C          63.0397   81.5279   11.8167 C.2     1  UNL1        0.1188
     14 N          62.6454   80.1682   12.3122 N.2     1  UNL1       -0.1512
     15 N          62.1899   80.3074   13.7346 N.2     1  UNL1       -0.1697
     16 C          62.3027   81.7531   14.1181 C.3     1  UNL1        0.1765
     17 C          60.3574   87.8485    9.3634 C.3     1  UNL1        0.0474
     18 C          61.0325   86.7632    8.5783 C.ar    1  UNL1       -0.0205
     19 C          60.2634   85.9971    7.5431 C.ar    1  UNL1       -0.0042
     20 C          60.9385   84.9118    6.7581 C.ar    1  UNL1       -0.0003
     21 C          62.3827   84.5926    7.0082 C.ar    1  UNL1       -0.0000
     22 C          63.1517   85.3587    8.0434 C.ar    1  UNL1       -0.0003
     23 C          62.4766   86.4441    8.8284 C.ar    1  UNL1       -0.0042
     24 C          62.4894   90.1271   13.1953 C.3     1  UNL1        0.0924
     25 C          63.9186   90.4624   13.5030 C.3     1  UNL1        0.0950
     26 N          64.4743   91.8015   13.1184 N.am    1  UNL1       -0.2706
     27 C          65.8132   92.2351   13.6376 C.2     1  UNL1        0.4019
     28 O          66.5963   91.3296   14.5412 O.2     1  UNL1       -0.2264
     29 H          63.9603   92.3959   12.5253 H       1  UNL1        0.1527
     30 O          66.3689   93.5742   13.2530 O.3     1  UNL1       -0.4299
     31 C          66.0338   94.1700   11.9178 C.3     1  UNL1        0.2361
     32 C          66.8444   93.8058   10.7094 C.2     1  UNL1        0.0461
     33 C          67.1762   94.7152    9.5635 C.2     1  UNL1        0.1188
     34 N          68.0024   93.9399    8.5805 N.2     1  UNL1       -0.1512
     35 N          68.1813   92.5512    9.1189 N.2     1  UNL1       -0.1697
     36 C          67.4656   92.4684   10.4346 C.3     1  UNL1        0.1765
     37 C          64.7923   89.4585   14.1952 C.3     1  UNL1        0.0474
     38 C          64.1908   88.4791   15.1590 C.ar    1  UNL1       -0.0205
     39 C          64.3946   87.0067   14.9571 C.ar    1  UNL1       -0.0042
     40 C          63.7932   86.0272   15.9209 C.ar    1  UNL1       -0.0003
     41 C          62.9880   86.5200   17.0866 C.ar    1  UNL1       -0.0000
     42 C          62.7842   87.9923   17.2885 C.ar    1  UNL1       -0.0003
     43 C          63.3857   88.9719   16.3247 C.ar    1  UNL1       -0.0042
@<TRIPOS>BOND
     1     2     3    1
     2     3     1    1
     3     1    24    1
     4    25    24    1
     5    25    37    1
     6    37    38    1
     7    38    39   ar
     8    39    40   ar
     9    40    41   ar
    10    41    42   ar
    11    42    43   ar
    12    25    26    1
    13    26    27   am
    14    27    28    2
    15    27    30    1
    16    30    31    1
    17    31    32    1
    18    32    33    2
    19    33    34    1
    20    34    35    2
    21    35    36    1
    22     1     4    1
    23     5     4    1
    24     5    17    1
    25    17    18    1
    26    18    19   ar
    27    19    20   ar
    28    20    21   ar
    29    21    22   ar
    30    22    23   ar
    31     5     6    1
    32     6     7   am
    33     7     8    2
    34     7    10    1
    35    10    11    1
    36    11    12    1
    37    12    13    2
    38    13    14    1
    39    14    15    2
    40    15    16    1
    41    43    38   ar
    42    36    32    1
    43    23    18   ar
    44    16    12    1
    45    26    29    1
    46     6     9    1
@<TRIPOS>MOLECULE
*****
 43 46 0 0 0
SMALL
GASTEIGER

@<TRIPOS>ATOM
      1 N          63.6384   87.0772   15.8219 N.3     1  UNL1       -0.2699
      2 C          62.5964   86.3929   18.1013 C.3     1  UNL1        0.0188
      3 C          63.1294   86.0153   16.7510 C.3     1  UNL1        0.0722
      4 C          64.2783   86.6917   14.5211 C.3     1  UNL1        0.0924
      5 C          63.7540   85.5198   13.7455 C.3     1  UNL1        0.0950
      6 N          62.3933   85.5843   13.1174 N.am    1  UNL1       -0.2706
      7 C          62.1466   86.4995   11.9548 C.2     1  UNL1        0.4019
      8 O          63.2605   87.3502   11.4204 O.2     1  UNL1       -0.2264
      9 H          61.6623   85.0260   13.4681 H       1  UNL1        0.1527
     10 O          60.7860   86.5640   11.3267 O.3     1  UNL1       -0.4299
     11 C          60.6263   87.1062    9.9372 C.3     1  UNL1        0.2361
     12 C          61.0279   86.2731    8.7563 C.2     1  UNL1        0.0461
     13 C          62.3777   85.6599    8.5280 C.2     1  UNL1        0.1188
     14 N          62.3343   84.9147    7.2269 N.2     1  UNL1       -0.1512
     15 N          60.9576   85.0674    6.6511 N.2     1  UNL1       -0.1697
     16 C          60.1503   85.9069    7.5963 C.3     1  UNL1        0.1765
     17 C          64.5902   84.2833   13.5981 C.3     1  UNL1        0.0474
     18 C          64.1141   83.1547   12.7324 C.ar    1  UNL1       -0.0205
     19 C          64.3344   83.2023   11.2495 C.ar    1  UNL1       -0.0042
     20 C          63.8582   82.0737   10.3838 C.ar    1  UNL1       -0.0003
     21 C          63.1616   80.8973   11.0011 C.ar    1  UNL1       -0.0000
     22 C          62.9413   80.8497   12.4841 C.ar    1  UNL1       -0.0003
     23 C          63.4175   81.9784   13.3498 C.ar    1  UNL1       -0.0042
     24 C          63.5075   88.5245   16.1935 C.3     1  UNL1        0.0924
     25 C          63.5716   89.5806   15.1302 C.3     1  UNL1        0.0950
     26 N          64.7636   90.4871   15.0444 N.am    1  UNL1       -0.2706
     27 C          64.8037   91.7517   15.8502 C.2     1  UNL1        0.4019
     28 O          63.6519   92.1098   16.7417 O.2     1  UNL1       -0.2264
     29 H          65.5196   90.2520   14.4593 H       1  UNL1        0.1527
     30 O          65.9957   92.6581   15.7644 O.3     1  UNL1       -0.4299
     31 C          67.1846   92.2580   14.9419 C.3     1  UNL1        0.2361
     32 C          67.2387   92.6047   13.4835 C.2     1  UNL1        0.0461
     33 C          66.5492   93.7636   12.8266 C.2     1  UNL1        0.1188
     34 N          66.8761   93.7285   11.3631 N.2     1  UNL1       -0.1512
     35 N          67.7677   92.5479   11.1155 N.2     1  UNL1       -0.1697
     36 C          67.9918   91.8533   12.4260 C.3     1  UNL1        0.1765
     37 C          62.4436   89.7302   14.1528 C.3     1  UNL1        0.0474
     38 C          62.7081   90.2733   12.7798 C.ar    1  UNL1       -0.0205
     39 C          63.9991   90.9793   12.4883 C.ar    1  UNL1       -0.0042
     40 C          64.2635   91.5224   11.1153 C.ar    1  UNL1       -0.0003
     41 C          63.2369   91.3596   10.0338 C.ar    1  UNL1       -0.0000
     42 C          61.9460   90.6536   10.3253 C.ar    1  UNL1       -0.0003
     43 C          61.6815   90.1105   11.6983 C.ar    1  UNL1       -0.0042
@<TRIPOS>BOND
     1     2     3    1
     2     3     1    1
     3     1    24    1
     4    25    24    1
     5    25    37    1
     6    37    38    1
     7    38    39   ar
     8    39    40   ar
     9    40    41   ar
    10    41    42   ar
    11    42    43   ar
    12    25    26    1
    13    26    27   am
    14    27    28    2
    15    27    30    1
    16    30    31    1
    17    31    32    1
    18    32    33    2
    19    33    34    1
    20    34    35    2
    21    35    36    1
    22     1     4    1
    23     5     4    1
    24     5    17    1
    25    17    18    1
    26    18    19   ar
    27    19    20   ar
    28    20    21   ar
    29    21    22   ar
    30    22    23   ar
    31     5     6    1
    32     6     7   am
    33     7     8    2
    34     7    10    1
    35    10    11    1
    36    11    12    1
    37    12    13    2
    38    13    14    1
    39    14    15    2
    40    15    16    1
    41    43    38   ar
    42    36    32    1
    43    23    18   ar
    44    16    12    1
    45    26    29    1
    46     6     9    1
@<TRIPOS>MOLECULE
*****
 43 46 0 0 0
SMALL
GASTEIGER

@<TRIPOS>ATOM
      1 N          62.4290   85.9617   11.0368 N.3     1  UNL1       -0.2699
      2 C          62.8468   85.6053    8.4974 C.3     1  UNL1        0.0188
      3 C          62.1412   85.2216    9.7643 C.3     1  UNL1        0.0722
      4 C          62.2652   85.2724   12.3589 C.3     1  UNL1        0.0924
      5 C          63.4667   84.9890   13.2109 C.3     1  UNL1        0.0950
      6 N          63.7490   85.8372   14.4155 N.am    1  UNL1       -0.2706
      7 C          63.2277   85.4267   15.7607 C.2     1  UNL1        0.4019
      8 O          62.4242   84.1679   15.9015 O.2     1  UNL1       -0.2264
      9 H          64.2763   86.6634   14.3231 H       1  UNL1        0.1527
     10 O          63.5099   86.2750   16.9652 O.3     1  UNL1       -0.4299
     11 C          62.8392   87.6080   17.1176 C.3     1  UNL1        0.2361
     12 C          63.3757   88.8051   16.3901 C.2     1  UNL1        0.0461
     13 C          64.2672   88.7774   15.1840 C.2     1  UNL1        0.1188
     14 N          64.5573   90.1952   14.7895 N.2     1  UNL1       -0.1512
     15 N          63.8451   91.0991   15.7517 N.2     1  UNL1       -0.1697
     16 C          63.1148   90.2399   16.7409 C.3     1  UNL1        0.1765
     17 C          64.3861   83.8573   12.8585 C.3     1  UNL1        0.0474
     18 C          63.8219   82.5608   12.3578 C.ar    1  UNL1       -0.0205
     19 C          63.1871   81.5986   13.3176 C.ar    1  UNL1       -0.0042
     20 C          62.6230   80.3021   12.8169 C.ar    1  UNL1       -0.0003
     21 C          62.6936   79.9678   11.3563 C.ar    1  UNL1       -0.0000
     22 C          63.3283   80.9300   10.3965 C.ar    1  UNL1       -0.0003
     23 C          63.8925   82.2265   10.8973 C.ar    1  UNL1       -0.0042
     24 C          62.8807   87.3912   10.9872 C.3     1  UNL1        0.0924
     25 C          61.9817   88.4798   11.4938 C.3     1  UNL1        0.0950
     26 N          62.5497   89.6017   12.3116 N.am    1  UNL1       -0.2706
     27 C          63.2366   90.7504   11.6344 C.2     1  UNL1        0.4019
     28 O          63.3557   90.7772   10.1394 O.2     1  UNL1       -0.2264
     29 H          62.4716   89.5841   13.2928 H       1  UNL1        0.1527
     30 O          63.8046   91.8722   12.4522 O.3     1  UNL1       -0.4299
     31 C          65.0289   92.5991   11.9803 C.3     1  UNL1        0.2361
     32 C          66.2393   92.6808   12.8626 C.2     1  UNL1        0.0461
     33 C          66.4199   93.6076   14.0281 C.2     1  UNL1        0.1188
     34 N          67.7738   93.3496   14.6201 N.2     1  UNL1       -0.1512
     35 N          68.4300   92.2634   13.8203 N.2     1  UNL1       -0.1697
     36 C          67.4816   91.8500   12.7342 C.3     1  UNL1        0.1765
     37 C          60.5147   88.4466   11.1826 C.3     1  UNL1        0.0474
     38 C          60.0521   88.3321    9.7604 C.ar    1  UNL1       -0.0205
     39 C          60.2156   89.4916    8.8228 C.ar    1  UNL1       -0.0042
     40 C          59.7531   89.3771    7.4006 C.ar    1  UNL1       -0.0003
     41 C          59.1269   88.1032    6.9158 C.ar    1  UNL1       -0.0000
     42 C          58.9634   86.9437    7.8532 C.ar    1  UNL1       -0.0003
     43 C          59.4260   87.0581    9.2756 C.ar    1  UNL1       -0.0042
@<TRIPOS>BOND
     1     2     3    1
     2     3     1    1
     3     1    24    1
     4    25    24    1
     5    25    37    1
     6    37    38    1
     7    38    39   ar
     8    39    40   ar
     9    40    41   ar
    10    41    42   ar
    11    42    43   ar
    12    25    26    1
    13    26    27   am
    14    27    28    2
    15    27    30    1
    16    30    31    1
    17    31    32    1
    18    32    33    2
    19    33    34    1
    20    34    35    2
    21    35    36    1
    22     1     4    1
    23     5     4    1
    24     5    17    1
    25    17    18    1
    26    18    19   ar
    27    19    20   ar
    28    20    21   ar
    29    21    22   ar
    30    22    23   ar
    31     5     6    1
    32     6     7   am
    33     7     8    2
    34     7    10    1
    35    10    11    1
    36    11    12    1
    37    12    13    2
    38    13    14    1
    39    14    15    2
    40    15    16    1
    41    43    38   ar
    42    36    32    1
    43    23    18   ar
    44    16    12    1
    45    26    29    1
    46     6     9    1
@<TRIPOS>MOLECULE
*****
 43 46 0 0 0
SMALL
GASTEIGER

@<TRIPOS>ATOM
      1 N          62.4098   86.0023   11.0330 N.3     1  UNL1       -0.2699
      2 C          62.9267   85.5595    8.5257 C.3     1  UNL1        0.0188
      3 C          62.0871   85.3082    9.7431 C.3     1  UNL1        0.0722
      4 C          62.2668   85.2707   12.3347 C.3     1  UNL1        0.0924
      5 C          63.4866   84.9031   13.1263 C.3     1  UNL1        0.0950
      6 N          63.8020   85.6309   14.3995 N.am    1  UNL1       -0.2706
      7 C          63.1984   85.1733   15.6942 C.2     1  UNL1        0.4019
      8 O          62.2794   83.9879   15.7158 O.2     1  UNL1       -0.2264
      9 H          64.4051   86.4089   14.3854 H       1  UNL1        0.1527
     10 O          63.5137   85.9011   16.9673 O.3     1  UNL1       -0.4299
     11 C          62.8655   87.2226   17.2561 C.3     1  UNL1        0.2361
     12 C          63.3051   88.4512   16.5162 C.2     1  UNL1        0.0461
     13 C          64.1332   88.4784   15.2659 C.2     1  UNL1        0.1188
     14 N          64.3337   89.9122   14.8737 N.2     1  UNL1       -0.1512
     15 N          63.6293   90.7713   15.8818 N.2     1  UNL1       -0.1697
     16 C          62.9936   89.8682   16.8969 C.3     1  UNL1        0.1765
     17 C          64.3912   83.8077   12.6449 C.3     1  UNL1        0.0474
     18 C          63.8130   82.4920   12.2153 C.ar    1  UNL1       -0.0205
     19 C          63.8039   82.1149   10.7635 C.ar    1  UNL1       -0.0042
     20 C          63.2257   80.7993   10.3339 C.ar    1  UNL1       -0.0003
     21 C          62.6564   79.8606   11.3561 C.ar    1  UNL1       -0.0000
     22 C          62.6655   80.2376   12.8079 C.ar    1  UNL1       -0.0003
     23 C          63.2438   81.5534   13.2375 C.ar    1  UNL1       -0.0042
     24 C          62.8755   87.4281   11.0213 C.3     1  UNL1        0.0924
     25 C          61.9631   88.5191   11.4981 C.3     1  UNL1        0.0950
     26 N          62.5155   89.6649   12.2930 N.am    1  UNL1       -0.2706
     27 C          63.1796   90.8128   11.5922 C.2     1  UNL1        0.4019
     28 O          63.2914   90.8150   10.0964 O.2     1  UNL1       -0.2264
     29 H          62.4422   89.6635   13.2748 H       1  UNL1        0.1527
     30 O          63.7320   91.9586   12.3871 O.3     1  UNL1       -0.4299
     31 C          65.2107   92.0711   12.6127 C.3     1  UNL1        0.2361
     32 C          66.0391   92.9553   11.7284 C.2     1  UNL1        0.0461
     33 C          66.1291   94.4503   11.8119 C.2     1  UNL1        0.1188
     34 N          67.0685   94.9188   10.7405 N.2     1  UNL1       -0.1512
     35 N          67.5592   93.7133    9.9948 N.2     1  UNL1       -0.1697
     36 C          66.9230   92.4999   10.6053 C.3     1  UNL1        0.1765
     37 C          60.4982   88.4642   11.1799 C.3     1  UNL1        0.0474
     38 C          60.0443   88.3354    9.7560 C.ar    1  UNL1       -0.0205
     39 C          59.4272   87.0543    9.2786 C.ar    1  UNL1       -0.0042
     40 C          58.9733   86.9254    7.8547 C.ar    1  UNL1       -0.0003
     41 C          59.1365   88.0776    6.9083 C.ar    1  UNL1       -0.0000
     42 C          59.7536   89.3587    7.3857 C.ar    1  UNL1       -0.0003
     43 C          60.2076   89.4876    8.8096 C.ar    1  UNL1       -0.0042
@<TRIPOS>BOND
     1     2     3    1
     2     3     1    1
     3     1    24    1
     4    25    24    1
     5    25    37    1
     6    37    38    1
     7    38    39   ar
     8    39    40   ar
     9    40    41   ar
    10    41    42   ar
    11    42    43   ar
    12    25    26    1
    13    26    27   am
    14    27    28    2
    15    27    30    1
    16    30    31    1
    17    31    32    1
    18    32    33    2
    19    33    34    1
    20    34    35    2
    21    35    36    1
    22     1     4    1
    23     5     4    1
    24     5    17    1
    25    17    18    1
    26    18    19   ar
    27    19    20   ar
    28    20    21   ar
    29    21    22   ar
    30    22    23   ar
    31     5     6    1
    32     6     7   am
    33     7     8    2
    34     7    10    1
    35    10    11    1
    36    11    12    1
    37    12    13    2
    38    13    14    1
    39    14    15    2
    40    15    16    1
    41    43    38   ar
    42    36    32    1
    43    23    18   ar
    44    16    12    1
    45    26    29    1
    46     6     9    1
