@<TRIPOS>MOLECULE
*****
 40 43 0 0 0
SMALL
GASTEIGER

@<TRIPOS>ATOM
      1 C          63.9456   90.5909   12.1934 C.2     1  UNL1        0.2491
      2 O          63.6020   90.8313   10.7531 O.2     1  UNL1       -0.2699
      3 N          63.2934   89.4669   12.9426 N.am    1  UNL1       -0.2776
      4 C          66.3269   93.6710   12.9634 C.ar    1  UNL1        0.1723
      5 C          65.3311   92.7874   12.2723 C.ar    1  UNL1        0.0446
      6 C          64.9414   91.4746   12.8845 C.ar    1  UNL1        0.0568
      7 C          65.5475   91.0454   14.1877 C.ar    1  UNL1        0.0078
      8 C          66.5433   91.9290   14.8787 C.ar    1  UNL1        0.0402
      9 C          66.9330   93.2418   14.2666 C.ar    1  UNL1        0.1724
     10 O          67.9288   94.1254   14.9577 O.3     1  UNL1       -0.4684
     11 C          68.9903   93.5213   15.8285 C.3     1  UNL1        0.2526
     12 O          66.7165   94.9838   12.3512 O.3     1  UNL1       -0.4723
     13 C          66.1237   95.4049   11.0393 C.3     1  UNL1        0.2082
     14 C          67.0198   95.8182    9.9096 C.3     1  UNL1        0.0794
     15 C          67.6891   94.7762    9.0633 C.3     1  UNL1        0.1461
     16 C          68.4800   92.3722    9.6509 C.3     1  UNL1        0.1741
     17 O          68.7049   93.8551    9.6714 O.3     1  UNL1       -0.3510
     18 C          63.6369   89.2265   14.3827 C.3     1  UNL1        0.0757
     19 C          63.1249   90.1577   15.4414 C.3     1  UNL1        0.0215
     20 C          64.4924   88.0550   14.7643 C.3     1  UNL1        0.0215
     21 C          62.2976   88.5833   12.2514 C.3     1  UNL1        0.0964
     22 C          61.3962   89.1516   11.1957 C.3     1  UNL1        0.0514
     23 C          60.3560   90.2124   11.4023 C.3     1  UNL1        0.0717
     24 N          59.6935   90.4753   10.0824 N.3     1  UNL1       -0.2963
     25 C          60.3243   89.5769    9.0601 C.3     1  UNL1        0.0846
     26 C          61.3766   88.7588    9.7482 C.3     1  UNL1        0.0731
     27 H          59.8277   91.4507    9.8159 H       1  UNL1        0.1233
     28 N          62.2550   87.7288    9.1022 N.3     1  UNL1       -0.2936
     29 H          63.1370   87.7308    9.6147 H       1  UNL1        0.1236
     30 C          61.8032   86.3006    9.0235 C.3     1  UNL1        0.0956
     31 C          62.4379   85.2637    9.9023 C.ar    1  UNL1       -0.0064
     32 C          63.3755   84.2525    9.3122 C.ar    1  UNL1       -0.0029
     33 C          64.0101   83.2157   10.1909 C.ar    1  UNL1       -0.0003
     34 C          63.7071   83.1900   11.6598 C.ar    1  UNL1       -0.0000
     35 C          64.3417   82.1531   12.5385 C.ar    1  UNL1       -0.0000
     36 C          64.0386   82.1274   14.0073 C.ar    1  UNL1       -0.0000
     37 C          63.1009   83.1387   14.5974 C.ar    1  UNL1       -0.0000
     38 C          62.4663   84.1755   13.7187 C.ar    1  UNL1       -0.0000
     39 C          62.7694   84.2012   12.2499 C.ar    1  UNL1       -0.0003
     40 C          62.1348   85.2381   11.3711 C.ar    1  UNL1       -0.0029
@<TRIPOS>BOND
     1    16    17    1
     2    17    15    1
     3    15    14    1
     4    14    13    1
     5    13    12    1
     6    12     4    1
     7     4     5   ar
     8     5     6   ar
     9     6     1    1
    10     1     2    2
    11     1     3   am
    12     3    21    1
    13    22    21    1
    14    22    23    1
    15    23    24    1
    16    24    25    1
    17    25    26    1
    18    26    28    1
    19    28    30    1
    20    30    31    1
    21    31    32   ar
    22    32    33   ar
    23    33    34   ar
    24    34    35   ar
    25    35    36   ar
    26    36    37   ar
    27    37    38   ar
    28    38    39   ar
    29    39    40   ar
    30     3    18    1
    31    18    19    1
    32    18    20    1
    33     6     7   ar
    34     7     8   ar
    35     8     9   ar
    36     9    10    1
    37    10    11    1
    38     9     4   ar
    39    26    22    1
    40    40    31   ar
    41    39    34   ar
    42    24    27    1
    43    28    29    1
@<TRIPOS>MOLECULE
*****
 40 43 0 0 0
SMALL
GASTEIGER

@<TRIPOS>ATOM
      1 C          62.6074   88.6655   11.7367 C.2     1  UNL1        0.2491
      2 O          63.1477   87.3735   12.2743 O.2     1  UNL1       -0.2699
      3 N          61.2895   88.6872   11.0207 N.am    1  UNL1       -0.2776
      4 C          64.5356   91.6699   13.4704 C.ar    1  UNL1        0.1723
      5 C          63.7580   90.3996   13.2919 C.ar    1  UNL1        0.0446
      6 C          63.3849   89.9358   11.9151 C.ar    1  UNL1        0.0568
      7 C          63.7894   90.7421   10.7167 C.ar    1  UNL1        0.0078
      8 C          64.5670   92.0123   10.8952 C.ar    1  UNL1        0.0402
      9 C          64.9400   92.4762   12.2720 C.ar    1  UNL1        0.1724
     10 O          65.7176   93.7465   12.4503 O.3     1  UNL1       -0.4684
     11 C          66.0974   94.5677   11.2540 C.3     1  UNL1        0.2526
     12 O          64.9087   92.1337   14.8472 O.3     1  UNL1       -0.4723
     13 C          66.3218   91.9908   15.3295 C.3     1  UNL1        0.2082
     14 C          67.2651   93.1538   15.2429 C.3     1  UNL1        0.0794
     15 C          68.7467   92.9198   15.2487 C.3     1  UNL1        0.1461
     16 C          68.5952   91.8204   12.8997 C.3     1  UNL1        0.1741
     17 O          69.4196   92.3419   14.0391 O.3     1  UNL1       -0.3510
     18 C          60.7491   89.9790   10.4831 C.3     1  UNL1        0.0757
     19 C          59.8826   90.8468   11.3470 C.3     1  UNL1        0.0215
     20 C          61.0751   90.4031    9.0817 C.3     1  UNL1        0.0215
     21 C          60.5119   87.4168   10.8423 C.3     1  UNL1        0.0964
     22 C          60.1749   86.9310    9.4637 C.3     1  UNL1        0.0514
     23 C          58.8120   86.9319    8.8373 C.3     1  UNL1        0.0717
     24 N          58.9363   86.3604    7.4560 N.3     1  UNL1       -0.2963
     25 C          60.3761   86.0064    7.2287 C.3     1  UNL1        0.0846
     26 C          61.1416   86.3591    8.4696 C.3     1  UNL1        0.0731
     27 H          58.6367   87.0508    6.7675 H       1  UNL1        0.1233
     28 N          62.6150   86.1726    8.6794 N.3     1  UNL1       -0.2936
     29 H          62.8383   86.5864    9.5845 H       1  UNL1        0.1236
     30 C          63.2043   84.7931    8.6768 C.3     1  UNL1        0.0956
     31 C          63.3765   84.0488    9.9677 C.ar    1  UNL1       -0.0064
     32 C          64.1677   82.7748    9.9990 C.ar    1  UNL1       -0.0029
     33 C          64.3400   82.0304   11.2898 C.ar    1  UNL1       -0.0003
     34 C          63.7211   82.5600   12.5494 C.ar    1  UNL1       -0.0000
     35 C          63.8933   81.8157   13.8402 C.ar    1  UNL1       -0.0000
     36 C          63.2744   82.3453   15.0997 C.ar    1  UNL1       -0.0000
     37 C          62.4832   83.6193   15.0684 C.ar    1  UNL1       -0.0000
     38 C          62.3109   84.3636   13.7776 C.ar    1  UNL1       -0.0000
     39 C          62.9299   83.8340   12.5181 C.ar    1  UNL1       -0.0003
     40 C          62.7576   84.5784   11.2272 C.ar    1  UNL1       -0.0029
@<TRIPOS>BOND
     1    16    17    1
     2    17    15    1
     3    15    14    1
     4    14    13    1
     5    13    12    1
     6    12     4    1
     7     4     5   ar
     8     5     6   ar
     9     6     1    1
    10     1     2    2
    11     1     3   am
    12     3    21    1
    13    22    21    1
    14    22    23    1
    15    23    24    1
    16    24    25    1
    17    25    26    1
    18    26    28    1
    19    28    30    1
    20    30    31    1
    21    31    32   ar
    22    32    33   ar
    23    33    34   ar
    24    34    35   ar
    25    35    36   ar
    26    36    37   ar
    27    37    38   ar
    28    38    39   ar
    29    39    40   ar
    30     3    18    1
    31    18    19    1
    32    18    20    1
    33     6     7   ar
    34     7     8   ar
    35     8     9   ar
    36     9    10    1
    37    10    11    1
    38     9     4   ar
    39    26    22    1
    40    40    31   ar
    41    39    34   ar
    42    24    27    1
    43    28    29    1
@<TRIPOS>MOLECULE
*****
 40 43 0 0 0
SMALL
GASTEIGER

@<TRIPOS>ATOM
      1 C          62.3617   88.3667   11.6216 C.2     1  UNL1        0.2491
      2 O          62.9033   87.0159   11.9851 O.2     1  UNL1       -0.2699
      3 N          61.0234   88.4835   10.9543 N.am    1  UNL1       -0.2776
      4 C          64.3722   91.1301   13.6394 C.ar    1  UNL1        0.1723
      5 C          63.5754   89.8960   13.3357 C.ar    1  UNL1        0.0446
      6 C          63.1585   89.6008   11.9254 C.ar    1  UNL1        0.0568
      7 C          63.5383   90.5395   10.8188 C.ar    1  UNL1        0.0078
      8 C          64.3351   91.7735   11.1226 C.ar    1  UNL1        0.0402
      9 C          64.7520   92.0688   12.5329 C.ar    1  UNL1        0.1724
     10 O          65.5488   93.3029   12.8366 O.3     1  UNL1       -0.4684
     11 C          66.1310   94.1141   11.7173 C.3     1  UNL1        0.2526
     12 O          64.7891   91.4254   15.0497 O.3     1  UNL1       -0.4723
     13 C          63.8546   91.1304   16.1854 C.3     1  UNL1        0.2082
     14 C          62.9671   89.9223   16.1320 C.3     1  UNL1        0.0794
     15 C          63.2064   88.7740   17.0668 C.3     1  UNL1        0.1461
     16 C          62.6016   86.2701   17.4058 C.3     1  UNL1        0.1741
     17 O          63.1659   87.3660   16.5511 O.3     1  UNL1       -0.3510
     18 C          60.4817   89.8342   10.5908 C.3     1  UNL1        0.0757
     19 C          59.8044   90.6755   11.6317 C.3     1  UNL1        0.0215
     20 C          60.6175   90.3436    9.1865 C.3     1  UNL1        0.0215
     21 C          60.2266   87.2493   10.6506 C.3     1  UNL1        0.0964
     22 C          60.1998   86.6982    9.2557 C.3     1  UNL1        0.0514
     23 C          58.9919   86.5918    8.3729 C.3     1  UNL1        0.0717
     24 N          59.4218   85.9846    7.0703 N.3     1  UNL1       -0.2963
     25 C          60.8954   85.7157    7.1483 C.3     1  UNL1        0.0846
     26 C          61.3763   86.1568    8.4989 C.3     1  UNL1        0.0731
     27 H          59.2279   86.6316    6.3060 H       1  UNL1        0.1233
     28 N          62.7860   86.0713    9.0041 N.3     1  UNL1       -0.2936
     29 H          62.7582   86.3075    9.9960 H       1  UNL1        0.1236
     30 C          63.5482   84.7848    8.8864 C.3     1  UNL1        0.0956
     31 C          63.3628   83.7067    9.9128 C.ar    1  UNL1       -0.0064
     32 C          63.6530   82.2778    9.5604 C.ar    1  UNL1       -0.0029
     33 C          63.4675   81.1997   10.5866 C.ar    1  UNL1       -0.0003
     34 C          62.9919   81.5504   11.9654 C.ar    1  UNL1       -0.0000
     35 C          62.8065   80.4723   12.9916 C.ar    1  UNL1       -0.0000
     36 C          62.3309   80.8230   14.3703 C.ar    1  UNL1       -0.0000
     37 C          62.0407   82.2519   14.7227 C.ar    1  UNL1       -0.0000
     38 C          62.2261   83.3300   13.6964 C.ar    1  UNL1       -0.0000
     39 C          62.7017   82.9793   12.3178 C.ar    1  UNL1       -0.0003
     40 C          62.8872   84.0574   11.2914 C.ar    1  UNL1       -0.0029
@<TRIPOS>BOND
     1    16    17    1
     2    17    15    1
     3    15    14    1
     4    14    13    1
     5    13    12    1
     6    12     4    1
     7     4     5   ar
     8     5     6   ar
     9     6     1    1
    10     1     2    2
    11     1     3   am
    12     3    21    1
    13    22    21    1
    14    22    23    1
    15    23    24    1
    16    24    25    1
    17    25    26    1
    18    26    28    1
    19    28    30    1
    20    30    31    1
    21    31    32   ar
    22    32    33   ar
    23    33    34   ar
    24    34    35   ar
    25    35    36   ar
    26    36    37   ar
    27    37    38   ar
    28    38    39   ar
    29    39    40   ar
    30     3    18    1
    31    18    19    1
    32    18    20    1
    33     6     7   ar
    34     7     8   ar
    35     8     9   ar
    36     9    10    1
    37    10    11    1
    38     9     4   ar
    39    26    22    1
    40    40    31   ar
    41    39    34   ar
    42    24    27    1
    43    28    29    1
@<TRIPOS>MOLECULE
*****
 40 43 0 0 0
SMALL
GASTEIGER

@<TRIPOS>ATOM
      1 C          62.7597   88.4441   12.1537 C.2     1  UNL1        0.2491
      2 O          63.2800   87.1305   12.6575 O.2     1  UNL1       -0.2699
      3 N          61.4956   88.4906   11.3475 N.am    1  UNL1       -0.2776
      4 C          64.7300   91.8502   11.6377 C.ar    1  UNL1        0.1723
      5 C          63.9863   90.5832   11.3352 C.ar    1  UNL1        0.0446
      6 C          63.5034   89.7112   12.4561 C.ar    1  UNL1        0.0568
      7 C          63.7643   90.1061   13.8795 C.ar    1  UNL1        0.0078
      8 C          64.5080   91.3731   14.1819 C.ar    1  UNL1        0.0402
      9 C          64.9909   92.2452   13.0610 C.ar    1  UNL1        0.1724
     10 O          65.7346   93.5122   13.3635 O.3     1  UNL1       -0.4684
     11 C          66.8669   93.5007   14.3472 C.3     1  UNL1        0.2526
     12 O          65.2129   92.7222   10.5168 O.3     1  UNL1       -0.4723
     13 C          66.6817   92.8363   10.2346 C.3     1  UNL1        0.2082
     14 C          67.1713   93.7834    9.1796 C.3     1  UNL1        0.0794
     15 C          67.5236   95.1952    9.5440 C.3     1  UNL1        0.1461
     16 C          65.4043   96.3237   10.5365 C.3     1  UNL1        0.1741
     17 O          66.8263   95.8709   10.6873 O.3     1  UNL1       -0.3510
     18 C          60.9752   89.8041   10.8437 C.3     1  UNL1        0.0757
     19 C          61.4862   90.3670    9.5506 C.3     1  UNL1        0.0215
     20 C          59.9439   90.5548   11.6329 C.3     1  UNL1        0.0215
     21 C          60.7519   87.2235   11.0452 C.3     1  UNL1        0.0964
     22 C          60.4317   86.8624    9.6249 C.3     1  UNL1        0.0514
     23 C          59.0774   86.9257    8.9831 C.3     1  UNL1        0.0717
     24 N          59.2182   86.4770    7.5586 N.3     1  UNL1       -0.2963
     25 C          60.6594   86.1365    7.3202 C.3     1  UNL1        0.0846
     26 C          61.4094   86.3747    8.5973 C.3     1  UNL1        0.0731
     27 H          58.9310   87.2268    6.9295 H       1  UNL1        0.1233
     28 N          62.8791   86.1624    8.8094 N.3     1  UNL1       -0.2936
     29 H          63.0970   86.5201    9.7395 H       1  UNL1        0.1236
     30 C          63.4562   84.7801    8.7309 C.3     1  UNL1        0.0956
     31 C          63.3599   83.8590    9.9108 C.ar    1  UNL1       -0.0064
     32 C          63.7111   82.4084    9.7605 C.ar    1  UNL1       -0.0029
     33 C          63.6148   81.4873   10.9404 C.ar    1  UNL1       -0.0003
     34 C          63.1673   82.0167   12.2707 C.ar    1  UNL1       -0.0000
     35 C          63.0710   81.0955   13.4506 C.ar    1  UNL1       -0.0000
     36 C          62.6235   81.6249   14.7808 C.ar    1  UNL1       -0.0000
     37 C          62.2722   83.0755   14.9311 C.ar    1  UNL1       -0.0000
     38 C          62.3685   83.9966   13.7512 C.ar    1  UNL1       -0.0000
     39 C          62.8161   83.4672   12.4210 C.ar    1  UNL1       -0.0003
     40 C          62.9124   84.3884   11.2410 C.ar    1  UNL1       -0.0029
@<TRIPOS>BOND
     1    16    17    1
     2    17    15    1
     3    15    14    1
     4    14    13    1
     5    13    12    1
     6    12     4    1
     7     4     5   ar
     8     5     6   ar
     9     6     1    1
    10     1     2    2
    11     1     3   am
    12     3    21    1
    13    22    21    1
    14    22    23    1
    15    23    24    1
    16    24    25    1
    17    25    26    1
    18    26    28    1
    19    28    30    1
    20    30    31    1
    21    31    32   ar
    22    32    33   ar
    23    33    34   ar
    24    34    35   ar
    25    35    36   ar
    26    36    37   ar
    27    37    38   ar
    28    38    39   ar
    29    39    40   ar
    30     3    18    1
    31    18    19    1
    32    18    20    1
    33     6     7   ar
    34     7     8   ar
    35     8     9   ar
    36     9    10    1
    37    10    11    1
    38     9     4   ar
    39    26    22    1
    40    40    31   ar
    41    39    34   ar
    42    24    27    1
    43    28    29    1
@<TRIPOS>MOLECULE
*****
 40 43 0 0 0
SMALL
GASTEIGER

@<TRIPOS>ATOM
      1 C          62.3192   85.5067   11.9094 C.2     1  UNL1        0.2491
      2 O          62.0008   85.5824   13.3734 O.2     1  UNL1       -0.2699
      3 N          63.2697   84.4634   11.4015 N.am    1  UNL1       -0.2776
      4 C          61.4582   88.8866   10.0159 C.ar    1  UNL1        0.1723
      5 C          62.0905   87.9189   10.9719 C.ar    1  UNL1        0.0446
      6 C          61.6869   86.4744   10.9534 C.ar    1  UNL1        0.0568
      7 C          60.6510   85.9974    9.9790 C.ar    1  UNL1        0.0078
      8 C          60.0188   86.9650    9.0231 C.ar    1  UNL1        0.0402
      9 C          60.4224   88.4096    9.0415 C.ar    1  UNL1        0.1724
     10 O          59.7900   89.3772    8.0855 O.3     1  UNL1       -0.4684
     11 C          59.3535   88.9130    6.7275 C.3     1  UNL1        0.2526
     12 O          61.8618   90.3311   10.0343 O.3     1  UNL1       -0.4723
     13 C          62.9158   90.8032   10.9915 C.3     1  UNL1        0.2082
     14 C          63.9839   91.7474   10.5250 C.3     1  UNL1        0.0794
     15 C          65.0262   92.2352   11.4871 C.3     1  UNL1        0.1461
     16 C          66.3302   94.4674   11.2289 C.3     1  UNL1        0.1741
     17 O          66.2182   92.9922   10.9812 O.3     1  UNL1       -0.3510
     18 C          63.5881   84.3877    9.9377 C.3     1  UNL1        0.0757
     19 C          63.2582   85.5416    9.0378 C.3     1  UNL1        0.0215
     20 C          64.2362   83.1582    9.3736 C.3     1  UNL1        0.0215
     21 C          63.9020   83.4958   12.3576 C.3     1  UNL1        0.0964
     22 C          63.1187   82.3206   12.8630 C.3     1  UNL1        0.0514
     23 C          62.7398   81.1062   12.0683 C.3     1  UNL1        0.0717
     24 N          61.9637   80.1884   12.9659 N.3     1  UNL1       -0.2963
     25 C          61.8632   80.8358   14.3153 C.3     1  UNL1        0.0846
     26 C          62.5770   82.1535   14.2517 C.3     1  UNL1        0.0731
     27 H          62.4463   79.2934   13.0465 H       1  UNL1        0.1233
     28 N          62.7233   83.1323   15.3788 N.3     1  UNL1       -0.2936
     29 H          62.7293   82.5887   16.2419 H       1  UNL1        0.1236
     30 C          63.9145   84.0423   15.4320 C.3     1  UNL1        0.0956
     31 C          63.7366   85.4914   15.7766 C.ar    1  UNL1       -0.0064
     32 C          63.0228   85.8803   17.0373 C.ar    1  UNL1       -0.0029
     33 C          62.8448   87.3292   17.3820 C.ar    1  UNL1       -0.0003
     34 C          63.3806   88.3894   16.4659 C.ar    1  UNL1       -0.0000
     35 C          63.2026   89.8383   16.8105 C.ar    1  UNL1       -0.0000
     36 C          63.7383   90.8984   15.8945 C.ar    1  UNL1       -0.0000
     37 C          64.4520   90.5095   14.6338 C.ar    1  UNL1       -0.0000
     38 C          64.6300   89.0605   14.2891 C.ar    1  UNL1       -0.0000
     39 C          64.0943   88.0005   15.2052 C.ar    1  UNL1       -0.0003
     40 C          64.2723   86.5514   14.8606 C.ar    1  UNL1       -0.0029
@<TRIPOS>BOND
     1    16    17    1
     2    17    15    1
     3    15    14    1
     4    14    13    1
     5    13    12    1
     6    12     4    1
     7     4     5   ar
     8     5     6   ar
     9     6     1    1
    10     1     2    2
    11     1     3   am
    12     3    21    1
    13    22    21    1
    14    22    23    1
    15    23    24    1
    16    24    25    1
    17    25    26    1
    18    26    28    1
    19    28    30    1
    20    30    31    1
    21    31    32   ar
    22    32    33   ar
    23    33    34   ar
    24    34    35   ar
    25    35    36   ar
    26    36    37   ar
    27    37    38   ar
    28    38    39   ar
    29    39    40   ar
    30     3    18    1
    31    18    19    1
    32    18    20    1
    33     6     7   ar
    34     7     8   ar
    35     8     9   ar
    36     9    10    1
    37    10    11    1
    38     9     4   ar
    39    26    22    1
    40    40    31   ar
    41    39    34   ar
    42    24    27    1
    43    28    29    1
@<TRIPOS>MOLECULE
*****
 40 43 0 0 0
SMALL
GASTEIGER

@<TRIPOS>ATOM
      1 C          65.0527   85.3359   14.5704 C.2     1  UNL1        0.2491
      2 O          66.5377   85.1242   14.5845 O.2     1  UNL1       -0.2699
      3 N          64.1438   84.2423   14.0929 N.am    1  UNL1       -0.2776
      4 C          63.9491   89.1479   14.6005 C.ar    1  UNL1        0.1723
      5 C          64.5251   87.8426   14.1372 C.ar    1  UNL1        0.0446
      6 C          64.4767   86.6411   15.0337 C.ar    1  UNL1        0.0568
      7 C          63.8523   86.7446   16.3936 C.ar    1  UNL1        0.0078
      8 C          63.2762   88.0498   16.8569 C.ar    1  UNL1        0.0402
      9 C          63.3247   89.2514   15.9604 C.ar    1  UNL1        0.1724
     10 O          62.7486   90.5566   16.4238 O.3     1  UNL1       -0.4684
     11 C          63.6580   91.7033   16.7523 C.3     1  UNL1        0.2526
     12 O          63.9976   90.3494   13.7039 O.3     1  UNL1       -0.4723
     13 C          65.2324   91.1997   13.6555 C.3     1  UNL1        0.2082
     14 C          65.2899   92.3871   12.7407 C.3     1  UNL1        0.0794
     15 C          66.4458   93.3397   12.8200 C.3     1  UNL1        0.1461
     16 C          66.2028   95.2638   11.0913 C.3     1  UNL1        0.1741
     17 O          66.9232   94.0443   11.5849 O.3     1  UNL1       -0.3510
     18 C          62.6589   84.4538   14.0788 C.3     1  UNL1        0.0757
     19 C          62.0091   85.1321   12.9093 C.3     1  UNL1        0.0215
     20 C          61.8237   83.9870   15.2341 C.3     1  UNL1        0.0215
     21 C          64.7199   82.9371   13.6296 C.3     1  UNL1        0.0964
     22 C          63.9676   82.0928   12.6442 C.3     1  UNL1        0.0514
     23 C          63.3221   80.7691   12.9291 C.3     1  UNL1        0.0717
     24 N          62.6842   80.2820   11.6618 N.3     1  UNL1       -0.2963
     25 C          62.9354   81.3048   10.5937 C.3     1  UNL1        0.0846
     26 C          63.7286   82.4239   11.2008 C.3     1  UNL1        0.0731
     27 H          61.6804   80.1669   11.8016 H       1  UNL1        0.1233
     28 N          64.2000   83.6574   10.4895 N.3     1  UNL1       -0.2936
     29 H          65.1895   83.5189   10.2841 H       1  UNL1        0.1236
     30 C          63.5465   84.0797    9.2071 C.3     1  UNL1        0.0956
     31 C          62.6803   85.3040    9.1744 C.ar    1  UNL1       -0.0064
     32 C          61.6530   85.4672    8.0937 C.ar    1  UNL1       -0.0029
     33 C          60.7868   86.6914    8.0610 C.ar    1  UNL1       -0.0003
     34 C          60.9481   87.7525    9.1089 C.ar    1  UNL1       -0.0000
     35 C          60.0820   88.9767    9.0762 C.ar    1  UNL1       -0.0000
     36 C          60.2432   90.0377   10.1241 C.ar    1  UNL1       -0.0000
     37 C          61.2706   89.8745   11.2048 C.ar    1  UNL1       -0.0000
     38 C          62.1367   88.6503   11.2375 C.ar    1  UNL1       -0.0000
     39 C          61.9755   87.5893   10.1896 C.ar    1  UNL1       -0.0003
     40 C          62.8416   86.3650   10.2223 C.ar    1  UNL1       -0.0029
@<TRIPOS>BOND
     1    16    17    1
     2    17    15    1
     3    15    14    1
     4    14    13    1
     5    13    12    1
     6    12     4    1
     7     4     5   ar
     8     5     6   ar
     9     6     1    1
    10     1     2    2
    11     1     3   am
    12     3    21    1
    13    22    21    1
    14    22    23    1
    15    23    24    1
    16    24    25    1
    17    25    26    1
    18    26    28    1
    19    28    30    1
    20    30    31    1
    21    31    32   ar
    22    32    33   ar
    23    33    34   ar
    24    34    35   ar
    25    35    36   ar
    26    36    37   ar
    27    37    38   ar
    28    38    39   ar
    29    39    40   ar
    30     3    18    1
    31    18    19    1
    32    18    20    1
    33     6     7   ar
    34     7     8   ar
    35     8     9   ar
    36     9    10    1
    37    10    11    1
    38     9     4   ar
    39    26    22    1
    40    40    31   ar
    41    39    34   ar
    42    24    27    1
    43    28    29    1
@<TRIPOS>MOLECULE
*****
 40 43 0 0 0
SMALL
GASTEIGER

@<TRIPOS>ATOM
      1 C          62.1015   85.7081   11.1466 C.2     1  UNL1        0.2491
      2 O          61.3678   86.8400   11.8031 O.2     1  UNL1       -0.2699
      3 N          62.5327   85.8242    9.7146 N.am    1  UNL1       -0.2776
      4 C          63.2844   83.3090   14.0783 C.ar    1  UNL1        0.1723
      5 C          62.9821   84.5569   13.3028 C.ar    1  UNL1        0.0446
      6 C          62.4038   84.4603   11.9221 C.ar    1  UNL1        0.0568
      7 C          62.1277   83.1159   11.3169 C.ar    1  UNL1        0.0078
      8 C          62.4300   81.8680   12.0925 C.ar    1  UNL1        0.0402
      9 C          63.0084   81.9646   13.4731 C.ar    1  UNL1        0.1724
     10 O          63.3107   80.7166   14.2486 O.3     1  UNL1       -0.4684
     11 C          62.5918   79.4403   13.9258 C.3     1  UNL1        0.2526
     12 O          63.8627   83.4056   15.4589 O.3     1  UNL1       -0.4723
     13 C          63.9513   84.7374   16.1435 C.3     1  UNL1        0.2082
     14 C          62.7442   85.3131   16.8228 C.3     1  UNL1        0.0794
     15 C          62.7684   86.7267   17.3239 C.3     1  UNL1        0.1461
     16 C          63.0648   89.2667   16.8653 C.3     1  UNL1        0.1741
     17 O          63.1532   87.8436   16.3995 O.3     1  UNL1       -0.3510
     18 C          63.2663   84.6925    9.0581 C.3     1  UNL1        0.0757
     19 C          64.3077   83.9302    9.8226 C.3     1  UNL1        0.0215
     20 C          62.9586   84.3231    7.6373 C.3     1  UNL1        0.0215
     21 C          62.2304   87.0722    8.9392 C.3     1  UNL1        0.0964
     22 C          60.8413   87.3214    8.4310 C.3     1  UNL1        0.0514
     23 C          59.9519   86.3135    7.7654 C.3     1  UNL1        0.0717
     24 N          58.6586   86.9915    7.4222 N.3     1  UNL1       -0.2963
     25 C          58.7487   88.4184    7.8758 C.3     1  UNL1        0.0846
     26 C          60.0977   88.6223    8.4992 C.3     1  UNL1        0.0731
     27 H          57.8863   86.5251    7.8982 H       1  UNL1        0.1233
     28 N          60.6126   89.9024    9.0876 N.3     1  UNL1       -0.2936
     29 H          59.8968   90.6105    8.9243 H       1  UNL1        0.1236
     30 C          60.9645   89.9702   10.5442 C.3     1  UNL1        0.0956
     31 C          62.2670   90.5778   10.9736 C.ar    1  UNL1       -0.0064
     32 C          63.0377   91.4476   10.0252 C.ar    1  UNL1       -0.0029
     33 C          64.3402   92.0552   10.4546 C.ar    1  UNL1       -0.0003
     34 C          64.8721   91.7929   11.8324 C.ar    1  UNL1       -0.0000
     35 C          66.1745   92.4004   12.2618 C.ar    1  UNL1       -0.0000
     36 C          66.7063   92.1381   13.6395 C.ar    1  UNL1       -0.0000
     37 C          65.9357   91.2683   14.5879 C.ar    1  UNL1       -0.0000
     38 C          64.6332   90.6607   14.1586 C.ar    1  UNL1       -0.0000
     39 C          64.1014   90.9230   12.7808 C.ar    1  UNL1       -0.0003
     40 C          62.7989   90.3155   12.3514 C.ar    1  UNL1       -0.0029
@<TRIPOS>BOND
     1    16    17    1
     2    17    15    1
     3    15    14    1
     4    14    13    1
     5    13    12    1
     6    12     4    1
     7     4     5   ar
     8     5     6   ar
     9     6     1    1
    10     1     2    2
    11     1     3   am
    12     3    21    1
    13    22    21    1
    14    22    23    1
    15    23    24    1
    16    24    25    1
    17    25    26    1
    18    26    28    1
    19    28    30    1
    20    30    31    1
    21    31    32   ar
    22    32    33   ar
    23    33    34   ar
    24    34    35   ar
    25    35    36   ar
    26    36    37   ar
    27    37    38   ar
    28    38    39   ar
    29    39    40   ar
    30     3    18    1
    31    18    19    1
    32    18    20    1
    33     6     7   ar
    34     7     8   ar
    35     8     9   ar
    36     9    10    1
    37    10    11    1
    38     9     4   ar
    39    26    22    1
    40    40    31   ar
    41    39    34   ar
    42    24    27    1
    43    28    29    1
@<TRIPOS>MOLECULE
*****
 40 43 0 0 0
SMALL
GASTEIGER

@<TRIPOS>ATOM
      1 C          62.3633   90.3500   10.1106 C.2     1  UNL1        0.2491
      2 O          62.9608   90.8955    8.8474 O.2     1  UNL1       -0.2699
      3 N          61.0365   89.6513   10.0720 N.am    1  UNL1       -0.2776
      4 C          64.6371   91.8879   12.9768 C.ar    1  UNL1        0.1723
      5 C          63.9077   91.7347   11.6750 C.ar    1  UNL1        0.0446
      6 C          63.0927   90.5032   11.4123 C.ar    1  UNL1        0.0568
      7 C          63.0070   89.4247   12.4514 C.ar    1  UNL1        0.0078
      8 C          63.7364   89.5779   13.7531 C.ar    1  UNL1        0.0402
      9 C          64.5514   90.8094   14.0158 C.ar    1  UNL1        0.1724
     10 O          65.2807   90.9625   15.3176 O.3     1  UNL1       -0.4684
     11 C          64.7332   91.8661   16.3824 C.3     1  UNL1        0.2526
     12 O          65.4521   93.1194   13.2395 O.3     1  UNL1       -0.4723
     13 C          66.4683   93.5747   12.2345 C.3     1  UNL1        0.2082
     14 C          66.0964   94.5977   11.2024 C.3     1  UNL1        0.0794
     15 C          66.9876   94.8263   10.0178 C.3     1  UNL1        0.1461
     16 C          68.2921   92.7423    9.1781 C.3     1  UNL1        0.1741
     17 O          68.2727   94.0637    9.8877 O.3     1  UNL1       -0.3510
     18 C          60.4390   89.1058   11.3350 C.3     1  UNL1        0.0757
     19 C          59.6043   89.9905   12.2129 C.3     1  UNL1        0.0215
     20 C          60.6762   87.6757   11.7203 C.3     1  UNL1        0.0215
     21 C          60.3072   89.4982    8.7701 C.3     1  UNL1        0.0964
     22 C          59.9221   88.1331    8.2822 C.3     1  UNL1        0.0514
     23 C          58.5967   87.7483    7.6946 C.3     1  UNL1        0.0717
     24 N          58.6502   86.2904    7.3453 N.3     1  UNL1       -0.2963
     25 C          60.0086   85.7743    7.7171 C.3     1  UNL1        0.0846
     26 C          60.7947   86.9131    8.2961 C.3     1  UNL1        0.0731
     27 H          58.4955   86.1683    6.3445 H       1  UNL1        0.1233
     28 N          62.2057   86.8441    8.8004 N.3     1  UNL1       -0.2936
     29 H          62.1680   87.0162    9.8051 H       1  UNL1        0.1236
     30 C          63.0116   85.5942    8.6052 C.3     1  UNL1        0.0956
     31 C          63.2295   84.6551    9.7545 C.ar    1  UNL1       -0.0064
     32 C          63.9616   83.3637    9.5393 C.ar    1  UNL1       -0.0029
     33 C          64.1795   82.4246   10.6884 C.ar    1  UNL1       -0.0003
     34 C          63.6654   82.7770   12.0529 C.ar    1  UNL1       -0.0000
     35 C          63.8833   81.8379   13.2020 C.ar    1  UNL1       -0.0000
     36 C          63.3692   82.1903   14.5664 C.ar    1  UNL1       -0.0000
     37 C          62.6372   83.4818   14.7816 C.ar    1  UNL1       -0.0000
     38 C          62.4192   84.4208   13.6324 C.ar    1  UNL1       -0.0000
     39 C          62.9333   84.0684   12.2681 C.ar    1  UNL1       -0.0003
     40 C          62.7154   85.0075   11.1188 C.ar    1  UNL1       -0.0029
@<TRIPOS>BOND
     1    16    17    1
     2    17    15    1
     3    15    14    1
     4    14    13    1
     5    13    12    1
     6    12     4    1
     7     4     5   ar
     8     5     6   ar
     9     6     1    1
    10     1     2    2
    11     1     3   am
    12     3    21    1
    13    22    21    1
    14    22    23    1
    15    23    24    1
    16    24    25    1
    17    25    26    1
    18    26    28    1
    19    28    30    1
    20    30    31    1
    21    31    32   ar
    22    32    33   ar
    23    33    34   ar
    24    34    35   ar
    25    35    36   ar
    26    36    37   ar
    27    37    38   ar
    28    38    39   ar
    29    39    40   ar
    30     3    18    1
    31    18    19    1
    32    18    20    1
    33     6     7   ar
    34     7     8   ar
    35     8     9   ar
    36     9    10    1
    37    10    11    1
    38     9     4   ar
    39    26    22    1
    40    40    31   ar
    41    39    34   ar
    42    24    27    1
    43    28    29    1
@<TRIPOS>MOLECULE
*****
 40 43 0 0 0
SMALL
GASTEIGER

@<TRIPOS>ATOM
      1 C          62.3104   89.9539   10.2110 C.2     1  UNL1        0.2491
      2 O          63.1715   89.9019    8.9839 O.2     1  UNL1       -0.2699
      3 N          60.8349   89.7064   10.1029 N.am    1  UNL1       -0.2776
      4 C          63.5729   89.4964   13.9456 C.ar    1  UNL1        0.1723
      5 C          62.9585   89.1969   12.6104 C.ar    1  UNL1        0.0446
      6 C          62.9248   90.2535   11.5463 C.ar    1  UNL1        0.0568
      7 C          63.5055   91.6097   11.8172 C.ar    1  UNL1        0.0078
      8 C          64.1199   91.9092   13.1524 C.ar    1  UNL1        0.0402
      9 C          64.1535   90.8526   14.2166 C.ar    1  UNL1        0.1724
     10 O          64.7680   91.1523   15.5518 O.3     1  UNL1       -0.4684
     11 C          65.7390   92.2868   15.6930 C.3     1  UNL1        0.2526
     12 O          63.6065   88.4398   15.0098 O.3     1  UNL1       -0.4723
     13 C          64.6254   87.3410   14.9436 C.3     1  UNL1        0.2082
     14 C          64.1912   85.9308   14.6734 C.3     1  UNL1        0.0794
     15 C          63.6554   85.0841   15.7896 C.3     1  UNL1        0.1461
     16 C          62.5877   86.3943   17.7628 C.3     1  UNL1        0.1741
     17 O          62.4394   85.5258   16.5489 O.3     1  UNL1       -0.3510
     18 C          59.9738   89.7584   11.3300 C.3     1  UNL1        0.0757
     19 C          59.3323   91.0503   11.7418 C.3     1  UNL1        0.0215
     20 C          59.7540   88.5186   12.1452 C.3     1  UNL1        0.0215
     21 C          60.2206   89.4068    8.7677 C.3     1  UNL1        0.0964
     22 C          60.0472   87.9845    8.3239 C.3     1  UNL1        0.0514
     23 C          58.8599   87.4263    7.5969 C.3     1  UNL1        0.0717
     24 N          59.1095   85.9674    7.3528 N.3     1  UNL1       -0.2963
     25 C          60.4512   85.6241    7.9291 C.3     1  UNL1        0.0846
     26 C          61.0307   86.8707    8.5292 C.3     1  UNL1        0.0731
     27 H          59.1046   85.7783    6.3505 H       1  UNL1        0.1233
     28 N          62.3603   86.9837    9.2144 N.3     1  UNL1       -0.2936
     29 H          62.6198   87.9699    9.1928 H       1  UNL1        0.1236
     30 C          62.5132   86.5267   10.6349 C.3     1  UNL1        0.0956
     31 C          62.6924   85.0687   10.9385 C.ar    1  UNL1       -0.0064
     32 C          63.3176   84.1619    9.9203 C.ar    1  UNL1       -0.0029
     33 C          63.4968   82.7039   10.2238 C.ar    1  UNL1       -0.0003
     34 C          63.0508   82.1527   11.5457 C.ar    1  UNL1       -0.0000
     35 C          63.2300   80.6947   11.8493 C.ar    1  UNL1       -0.0000
     36 C          62.7840   80.1436   13.1711 C.ar    1  UNL1       -0.0000
     37 C          62.1587   81.0504   14.1893 C.ar    1  UNL1       -0.0000
     38 C          61.9795   82.5083   13.8858 C.ar    1  UNL1       -0.0000
     39 C          62.4256   83.0595   12.5639 C.ar    1  UNL1       -0.0003
     40 C          62.2464   84.5175   12.2603 C.ar    1  UNL1       -0.0029
@<TRIPOS>BOND
     1    16    17    1
     2    17    15    1
     3    15    14    1
     4    14    13    1
     5    13    12    1
     6    12     4    1
     7     4     5   ar
     8     5     6   ar
     9     6     1    1
    10     1     2    2
    11     1     3   am
    12     3    21    1
    13    22    21    1
    14    22    23    1
    15    23    24    1
    16    24    25    1
    17    25    26    1
    18    26    28    1
    19    28    30    1
    20    30    31    1
    21    31    32   ar
    22    32    33   ar
    23    33    34   ar
    24    34    35   ar
    25    35    36   ar
    26    36    37   ar
    27    37    38   ar
    28    38    39   ar
    29    39    40   ar
    30     3    18    1
    31    18    19    1
    32    18    20    1
    33     6     7   ar
    34     7     8   ar
    35     8     9   ar
    36     9    10    1
    37    10    11    1
    38     9     4   ar
    39    26    22    1
    40    40    31   ar
    41    39    34   ar
    42    24    27    1
    43    28    29    1
