@<TRIPOS>MOLECULE
*****
 35 37 0 0 0
SMALL
GASTEIGER

@<TRIPOS>ATOM
      1 N          63.5151   86.2710   13.6169 N.pl3   1  UNL1       -0.2927
      2 C          64.3645   86.9023   14.6799 C.3     1  UNL1        0.0927
      3 C          64.6573   88.3727   14.6309 C.3     1  UNL1        0.0306
      4 C          64.1008   89.2116   13.5190 C.3     1  UNL1        0.0814
      5 C          63.2514   88.5803   12.4561 C.3     1  UNL1        0.0306
      6 C          62.9585   87.1100   12.5050 C.3     1  UNL1        0.0927
      7 C          62.6365   81.8600   13.7637 C.ar    1  UNL1        0.0900
      8 C          62.3423   82.7234   14.9545 C.ar    1  UNL1        0.0207
      9 C          62.6352   84.1937   14.9056 C.ar    1  UNL1        0.1001
     10 C          63.2222   84.8007   13.6659 C.ar    1  UNL1        0.1409
     11 N          63.5163   83.9373   12.4751 N.ar    1  UNL1       -0.2341
     12 C          63.2235   82.4670   12.5240 C.ar    1  UNL1        0.0670
     13 C          63.5176   81.6036   11.3331 C.3     1  UNL1        0.0524
     14 C          62.3436   80.3897   13.8127 C.2     1  UNL1        0.3424
     15 O          63.4365   79.4180   14.1462 O.2     1  UNL1       -0.2449
     16 O          60.9579   79.8911   13.5281 O.3     1  UNL1       -0.4454
     17 C          58.5993   79.6803   14.5971 C.3     1  UNL1        0.0513
     18 C          59.7794   80.5212   14.2094 C.3     1  UNL1        0.2089
     19 C          62.3411   85.0571   16.0965 C.1     1  UNL1        0.1032
     20 N          62.0469   85.9205   17.2873 N.1     1  UNL1       -0.1907
     21 C          64.3937   90.6820   13.4701 C.2     1  UNL1        0.2402
     22 O          63.5539   91.6407   14.2609 O.2     1  UNL1       -0.2736
     23 N          65.5264   91.1935   12.6303 N.am    1  UNL1       -0.1885
     24 H          66.0776   90.5643   12.1112 H       1  UNL1        0.1762
     25 S          65.8192   92.6638   12.5814 S.O2    1  UNL1        0.0602
     26 O          64.6582   92.8642   11.6529 O.2     1  UNL1       -0.1541
     27 O          66.9802   92.4635   13.5098 O.2     1  UNL1       -0.1541
     28 C          66.1121   94.1342   12.5324 C.3     1  UNL1        0.1988
     29 C          66.5497   94.7693   11.2460 C.ar    1  UNL1        0.0034
     30 C          66.2686   96.2208   10.9925 C.ar    1  UNL1       -0.0002
     31 C          66.7063   96.8559    9.7060 C.ar    1  UNL1        0.0294
     32 C          67.4250   96.0396    8.6730 C.ar    1  UNL1        0.1401
     33 F          67.8627   96.6747    7.3865 F       1  UNL1       -0.2042
     34 C          67.7061   94.5881    8.9265 C.ar    1  UNL1        0.0294
     35 C          67.2684   93.9530   10.2130 C.ar    1  UNL1       -0.0002
@<TRIPOS>BOND
     1    17    18    1
     2    18    16    1
     3    16    14    1
     4    14    15    2
     5    14     7    1
     6     7     8   ar
     7     8     9   ar
     8     9    19    1
     9    19    20    3
    10     9    10   ar
    11    10     1    1
    12     1     2    1
    13     2     3    1
    14     3     4    1
    15     4    21    1
    16    21    22    2
    17    21    23   am
    18    23    25    1
    19    25    26    2
    20    25    27    2
    21    25    28    1
    22    28    29    1
    23    29    30   ar
    24    30    31   ar
    25    31    32   ar
    26    32    33    1
    27    32    34   ar
    28    34    35   ar
    29     4     5    1
    30     5     6    1
    31    10    11   ar
    32    11    12   ar
    33    12    13    1
    34    12     7   ar
    35     6     1    1
    36    35    29   ar
    37    23    24    1
