@<TRIPOS>MOLECULE
*****
 25 27 0 0 0
SMALL
GASTEIGER

@<TRIPOS>ATOM
      1 O          63.4290   83.0667   15.6920 O.2     1  UNL1       -0.2262
      2 C          63.9108   84.1588   14.7835 C.2     1  UNL1        0.4052
      3 N          63.7890   85.5932   15.2048 N.am    1  UNL1       -0.2460
      4 C          64.2708   86.6852   14.2963 C.3     1  UNL1        0.0968
      5 C          64.1490   88.1196   14.7177 C.3     1  UNL1        0.0234
      6 C          63.5455   88.4621   16.0475 C.3     1  UNL1        0.0229
      7 C          63.0637   87.3701   16.9560 C.3     1  UNL1        0.0234
      8 C          63.1855   85.9356   16.5346 C.3     1  UNL1        0.0968
      9 O          64.5143   83.8163   13.4536 O.3     1  UNL1       -0.4295
     10 C          63.6499   83.2708   12.3558 C.3     1  UNL1        0.2367
     11 C          63.1692   84.1753   11.2600 C.ar    1  UNL1        0.0213
     12 C          63.6780   83.9943    9.8607 C.ar    1  UNL1       -0.0007
     13 C          63.1973   84.8988    8.7650 C.ar    1  UNL1       -0.0002
     14 C          62.2077   85.9844    9.0686 C.ar    1  UNL1       -0.0000
     15 C          61.6989   86.1655   10.4680 C.ar    1  UNL1       -0.0002
     16 C          62.1796   85.2609   11.5637 C.ar    1  UNL1       -0.0007
     17 C          63.4237   89.8965   16.4689 C.3     1  UNL1        0.0871
     18 N          63.6304   90.9929   15.4662 N.pl3   1  UNL1       -0.3326
     19 H          62.8643   91.3471   14.9593 H       1  UNL1        0.1468
     20 C          65.0041   91.5494   15.2358 C.ar    1  UNL1        0.0478
     21 C          65.7024   92.3002   16.3306 C.ar    1  UNL1        0.0350
     22 C          67.0762   92.8568   16.1002 C.ar    1  UNL1        0.1001
     23 N          67.7515   92.6626   14.7750 N.ar    1  UNL1       -0.2422
     24 C          67.0532   91.9118   13.6802 C.ar    1  UNL1        0.1001
     25 C          65.6795   91.3552   13.9106 C.ar    1  UNL1        0.0350
@<TRIPOS>BOND
     1     1     2    2
     2     2     9    1
     3     9    10    1
     4    10    11    1
     5    11    12   ar
     6    12    13   ar
     7    13    14   ar
     8    14    15   ar
     9    15    16   ar
    10     2     3   am
    11     3     4    1
    12     4     5    1
    13     5     6    1
    14     6    17    1
    15    17    18    1
    16    18    20    1
    17    20    21   ar
    18    21    22   ar
    19    22    23   ar
    20    23    24   ar
    21    24    25   ar
    22     6     7    1
    23     7     8    1
    24    16    11   ar
    25     8     3    1
    26    25    20   ar
    27    18    19    1
@<TRIPOS>MOLECULE
*****
 25 27 0 0 0
SMALL
GASTEIGER

@<TRIPOS>ATOM
      1 O          60.6844   89.4420    9.1232 O.2     1  UNL1       -0.2262
      2 C          61.2599   89.1489   10.4771 C.2     1  UNL1        0.4052
      3 N          62.3950   89.9754   11.0045 N.am    1  UNL1       -0.2460
      4 C          62.9705   89.6823   12.3583 C.3     1  UNL1        0.0968
      5 C          64.1057   90.5088   12.8858 C.3     1  UNL1        0.0234
      6 C          64.6654   91.6286   12.0593 C.3     1  UNL1        0.0229
      7 C          64.0899   91.9217   10.7055 C.3     1  UNL1        0.0234
      8 C          62.9547   91.0951   10.1781 C.3     1  UNL1        0.0968
      9 O          60.7001   88.0291   11.3035 O.3     1  UNL1       -0.4295
     10 C          61.1939   86.6275   11.1001 C.3     1  UNL1        0.2367
     11 C          61.4092   86.1022    9.7116 C.ar    1  UNL1        0.0213
     12 C          62.7223   85.4792    9.3407 C.ar    1  UNL1       -0.0007
     13 C          62.9375   84.9539    7.9523 C.ar    1  UNL1       -0.0002
     14 C          61.8397   85.0516    6.9348 C.ar    1  UNL1       -0.0000
     15 C          60.5266   85.6746    7.3058 C.ar    1  UNL1       -0.0002
     16 C          60.3114   86.1999    8.6942 C.ar    1  UNL1       -0.0007
     17 C          65.8006   92.4551   12.5867 C.3     1  UNL1        0.0871
     18 N          65.7778   93.9468   12.4310 N.pl3   1  UNL1       -0.3326
     19 H          65.3695   94.5084   13.1289 H       1  UNL1        0.1468
     20 C          66.3772   94.5828   11.2119 C.ar    1  UNL1        0.0478
     21 C          67.1450   93.7474   10.2307 C.ar    1  UNL1        0.0350
     22 C          67.7444   94.3835    9.0116 C.ar    1  UNL1        0.1001
     23 N          67.5760   95.8548    8.7736 N.ar    1  UNL1       -0.2422
     24 C          66.8082   96.6902    9.7548 C.ar    1  UNL1        0.1001
     25 C          66.2088   96.0542   10.9739 C.ar    1  UNL1        0.0350
@<TRIPOS>BOND
     1     1     2    2
     2     2     9    1
     3     9    10    1
     4    10    11    1
     5    11    12   ar
     6    12    13   ar
     7    13    14   ar
     8    14    15   ar
     9    15    16   ar
    10     2     3   am
    11     3     4    1
    12     4     5    1
    13     5     6    1
    14     6    17    1
    15    17    18    1
    16    18    20    1
    17    20    21   ar
    18    21    22   ar
    19    22    23   ar
    20    23    24   ar
    21    24    25   ar
    22     6     7    1
    23     7     8    1
    24    16    11   ar
    25     8     3    1
    26    25    20   ar
    27    18    19    1
@<TRIPOS>MOLECULE
*****
 25 27 0 0 0
SMALL
GASTEIGER

@<TRIPOS>ATOM
      1 O          61.2273   88.7197    9.3030 O.2     1  UNL1       -0.2262
      2 C          61.8282   88.5939   10.6717 C.2     1  UNL1        0.4052
      3 N          62.7757   89.6425   11.1741 N.am    1  UNL1       -0.2460
      4 C          63.3765   89.5167   12.5428 C.3     1  UNL1        0.0968
      5 C          64.3240   90.5653   13.0452 C.3     1  UNL1        0.0234
      6 C          64.6708   91.7399   12.1790 C.3     1  UNL1        0.0229
      7 C          64.0700   91.8657   10.8104 C.3     1  UNL1        0.0234
      8 C          63.1224   90.8170   10.3079 C.3     1  UNL1        0.0968
      9 O          61.4814   87.4193   11.5379 O.3     1  UNL1       -0.4295
     10 C          61.3269   86.0575   10.9283 C.3     1  UNL1        0.2367
     11 C          62.3902   85.0193   11.1327 C.ar    1  UNL1        0.0213
     12 C          63.0442   84.3722    9.9480 C.ar    1  UNL1       -0.0007
     13 C          64.1073   83.3340   10.1524 C.ar    1  UNL1       -0.0002
     14 C          64.5165   82.9429   11.5415 C.ar    1  UNL1       -0.0000
     15 C          63.8625   83.5900   12.7262 C.ar    1  UNL1       -0.0002
     16 C          62.7994   84.6282   12.5218 C.ar    1  UNL1       -0.0007
     17 C          65.6183   92.7885   12.6814 C.3     1  UNL1        0.0871
     18 N          66.8525   93.1220   11.8969 N.pl3   1  UNL1       -0.3326
     19 H          67.6954   92.6473   12.0800 H       1  UNL1        0.1468
     20 C          66.8026   94.1787   10.8335 C.ar    1  UNL1        0.0478
     21 C          67.3866   93.9074    9.4787 C.ar    1  UNL1        0.0350
     22 C          67.3366   94.9642    8.4153 C.ar    1  UNL1        0.1001
     23 N          66.7027   96.2921    8.7066 N.ar    1  UNL1       -0.2422
     24 C          66.1188   96.5633   10.0614 C.ar    1  UNL1        0.1001
     25 C          66.1687   95.5066   11.1248 C.ar    1  UNL1        0.0350
@<TRIPOS>BOND
     1     1     2    2
     2     2     9    1
     3     9    10    1
     4    10    11    1
     5    11    12   ar
     6    12    13   ar
     7    13    14   ar
     8    14    15   ar
     9    15    16   ar
    10     2     3   am
    11     3     4    1
    12     4     5    1
    13     5     6    1
    14     6    17    1
    15    17    18    1
    16    18    20    1
    17    20    21   ar
    18    21    22   ar
    19    22    23   ar
    20    23    24   ar
    21    24    25   ar
    22     6     7    1
    23     7     8    1
    24    16    11   ar
    25     8     3    1
    26    25    20   ar
    27    18    19    1
@<TRIPOS>MOLECULE
*****
 25 27 0 0 0
SMALL
GASTEIGER

@<TRIPOS>ATOM
      1 O          62.6588   84.7910   17.2299 O.2     1  UNL1       -0.2262
      2 C          63.4009   85.3385   16.0469 C.2     1  UNL1        0.4052
      3 N          63.5414   86.8214   15.8704 N.am    1  UNL1       -0.2460
      4 C          64.2836   87.3689   14.6874 C.3     1  UNL1        0.0968
      5 C          64.4241   88.8518   14.5109 C.3     1  UNL1        0.0234
      6 C          63.8224   89.7873   15.5174 C.3     1  UNL1        0.0229
      7 C          63.0802   89.2398   16.7003 C.3     1  UNL1        0.0234
      8 C          62.9397   87.7568   16.8768 C.3     1  UNL1        0.0968
      9 O          64.0026   84.4030   15.0404 O.3     1  UNL1       -0.4295
     10 C          63.1157   83.6381   14.1034 C.3     1  UNL1        0.2367
     11 C          63.2186   83.8609   12.6235 C.ar    1  UNL1        0.0213
     12 C          64.0333   82.9264   11.7792 C.ar    1  UNL1       -0.0007
     13 C          64.1362   83.1492   10.2995 C.ar    1  UNL1       -0.0002
     14 C          63.4242   84.3065    9.6640 C.ar    1  UNL1       -0.0000
     15 C          62.6095   85.2410   10.5083 C.ar    1  UNL1       -0.0002
     16 C          62.5067   85.0182   11.9881 C.ar    1  UNL1       -0.0007
     17 C          63.9629   91.2702   15.3409 C.3     1  UNL1        0.0871
     18 N          65.0401   92.0140   16.0733 N.pl3   1  UNL1       -0.3326
     19 H          64.8594   92.3905   16.9648 H       1  UNL1        0.1468
     20 C          66.3925   92.1842   15.4473 C.ar    1  UNL1        0.0478
     21 C          67.5068   92.8146   16.2290 C.ar    1  UNL1        0.0350
     22 C          68.8593   92.9848   15.6030 C.ar    1  UNL1        0.1001
     23 N          69.0975   92.5245   14.1954 N.ar    1  UNL1       -0.2422
     24 C          67.9833   91.8941   13.4138 C.ar    1  UNL1        0.1001
     25 C          66.6308   91.7239   14.0397 C.ar    1  UNL1        0.0350
@<TRIPOS>BOND
     1     1     2    2
     2     2     9    1
     3     9    10    1
     4    10    11    1
     5    11    12   ar
     6    12    13   ar
     7    13    14   ar
     8    14    15   ar
     9    15    16   ar
    10     2     3   am
    11     3     4    1
    12     4     5    1
    13     5     6    1
    14     6    17    1
    15    17    18    1
    16    18    20    1
    17    20    21   ar
    18    21    22   ar
    19    22    23   ar
    20    23    24   ar
    21    24    25   ar
    22     6     7    1
    23     7     8    1
    24    16    11   ar
    25     8     3    1
    26    25    20   ar
    27    18    19    1
@<TRIPOS>MOLECULE
*****
 25 27 0 0 0
SMALL
GASTEIGER

@<TRIPOS>ATOM
      1 O          64.4255   82.6412   15.5649 O.2     1  UNL1       -0.2262
      2 C          63.5589   83.7040   14.9571 C.2     1  UNL1        0.4052
      3 N          63.4787   83.8444   13.4659 N.am    1  UNL1       -0.2460
      4 C          62.6120   84.9072   12.8581 C.3     1  UNL1        0.0968
      5 C          62.5319   85.0476   11.3669 C.3     1  UNL1        0.0234
      6 C          63.3184   84.1252   10.4834 C.3     1  UNL1        0.0229
      7 C          64.1850   83.0624   11.0911 C.3     1  UNL1        0.0234
      8 C          64.2652   82.9220   12.5824 C.3     1  UNL1        0.0968
      9 O          62.7724   84.6264   15.8407 O.3     1  UNL1       -0.4295
     10 C          63.4811   85.6558   16.6702 C.3     1  UNL1        0.2367
     11 C          63.5907   87.0689   16.1792 C.ar    1  UNL1        0.0213
     12 C          64.2662   87.3582   14.8715 C.ar    1  UNL1       -0.0007
     13 C          64.3759   88.7713   14.3805 C.ar    1  UNL1       -0.0002
     14 C          63.8100   89.8951   15.1972 C.ar    1  UNL1       -0.0000
     15 C          63.1346   89.6058   16.5048 C.ar    1  UNL1       -0.0002
     16 C          63.0249   88.1927   16.9958 C.ar    1  UNL1       -0.0007
     17 C          63.2382   84.2656    8.9921 C.3     1  UNL1        0.0871
     18 N          63.0903   85.6241    8.3736 N.pl3   1  UNL1       -0.3326
     19 H          63.8613   86.0522    7.9359 H       1  UNL1        0.1468
     20 C          61.7679   86.3302    8.4219 C.ar    1  UNL1        0.0478
     21 C          60.6115   85.8127    7.6188 C.ar    1  UNL1        0.0350
     22 C          59.2890   86.5189    7.6671 C.ar    1  UNL1        0.1001
     23 N          59.1229   87.7426    8.5185 N.ar    1  UNL1       -0.2422
     24 C          60.2792   88.2602    9.3216 C.ar    1  UNL1        0.1001
     25 C          61.6017   87.5540    9.2733 C.ar    1  UNL1        0.0350
@<TRIPOS>BOND
     1     1     2    2
     2     2     9    1
     3     9    10    1
     4    10    11    1
     5    11    12   ar
     6    12    13   ar
     7    13    14   ar
     8    14    15   ar
     9    15    16   ar
    10     2     3   am
    11     3     4    1
    12     4     5    1
    13     5     6    1
    14     6    17    1
    15    17    18    1
    16    18    20    1
    17    20    21   ar
    18    21    22   ar
    19    22    23   ar
    20    23    24   ar
    21    24    25   ar
    22     6     7    1
    23     7     8    1
    24    16    11   ar
    25     8     3    1
    26    25    20   ar
    27    18    19    1
@<TRIPOS>MOLECULE
*****
 25 27 0 0 0
SMALL
GASTEIGER

@<TRIPOS>ATOM
      1 O          60.7990   87.4005    9.4429 O.2     1  UNL1       -0.2262
      2 C          61.5548   87.3710   10.7383 C.2     1  UNL1        0.4052
      3 N          62.3390   88.5723   11.1765 N.am    1  UNL1       -0.2460
      4 C          63.0948   88.5428   12.4718 C.3     1  UNL1        0.0968
      5 C          63.8790   89.7440   12.9101 C.3     1  UNL1        0.0234
      6 C          63.9074   90.9748   12.0530 C.3     1  UNL1        0.0229
      7 C          63.1515   91.0042   10.7576 C.3     1  UNL1        0.0234
      8 C          62.3673   89.8029   10.3194 C.3     1  UNL1        0.0968
      9 O          61.5264   86.1403   11.5954 O.3     1  UNL1       -0.4295
     10 C          62.7152   85.2265   11.6352 C.3     1  UNL1        0.2367
     11 C          62.6459   83.9385   12.4010 C.ar    1  UNL1        0.0213
     12 C          62.6933   82.6288   11.6715 C.ar    1  UNL1       -0.0007
     13 C          62.6240   81.3409   12.4373 C.ar    1  UNL1       -0.0002
     14 C          62.5072   81.3627   13.9326 C.ar    1  UNL1       -0.0000
     15 C          62.4598   82.6725   14.6621 C.ar    1  UNL1       -0.0002
     16 C          62.5292   83.9604   13.8963 C.ar    1  UNL1       -0.0007
     17 C          64.6915   92.1760   12.4912 C.3     1  UNL1        0.0871
     18 N          66.1731   92.2287   12.2628 N.pl3   1  UNL1       -0.3326
     19 H          66.7789   91.7098   12.8399 H       1  UNL1        0.1468
     20 C          66.7317   93.0719   11.1552 C.ar    1  UNL1        0.0478
     21 C          67.6498   92.4617   10.1379 C.ar    1  UNL1        0.0350
     22 C          68.2084   93.3050    9.0303 C.ar    1  UNL1        0.1001
     23 N          67.8489   94.7584    8.9399 N.ar    1  UNL1       -0.2422
     24 C          66.9309   95.3686    9.9571 C.ar    1  UNL1        0.1001
     25 C          66.3723   94.5254   11.0648 C.ar    1  UNL1        0.0350
@<TRIPOS>BOND
     1     1     2    2
     2     2     9    1
     3     9    10    1
     4    10    11    1
     5    11    12   ar
     6    12    13   ar
     7    13    14   ar
     8    14    15   ar
     9    15    16   ar
    10     2     3   am
    11     3     4    1
    12     4     5    1
    13     5     6    1
    14     6    17    1
    15    17    18    1
    16    18    20    1
    17    20    21   ar
    18    21    22   ar
    19    22    23   ar
    20    23    24   ar
    21    24    25   ar
    22     6     7    1
    23     7     8    1
    24    16    11   ar
    25     8     3    1
    26    25    20   ar
    27    18    19    1
@<TRIPOS>MOLECULE
*****
 25 27 0 0 0
SMALL
GASTEIGER

@<TRIPOS>ATOM
      1 O          62.3432   86.3558   18.1252 O.2     1  UNL1       -0.2262
      2 C          63.0981   86.3215   16.8295 C.2     1  UNL1        0.4052
      3 N          63.4933   87.6029   16.1575 N.am    1  UNL1       -0.2460
      4 C          64.2482   87.5686   14.8618 C.3     1  UNL1        0.0968
      5 C          64.6435   88.8500   14.1898 C.3     1  UNL1        0.0234
      6 C          64.2838   90.1660   14.8136 C.3     1  UNL1        0.0229
      7 C          63.5290   90.2004   16.1094 C.3     1  UNL1        0.0234
      8 C          63.1337   88.9188   16.7813 C.3     1  UNL1        0.0968
      9 O          63.4577   85.0055   16.2057 O.3     1  UNL1       -0.4295
     10 C          62.3799   84.1084   15.6732 C.3     1  UNL1        0.2367
     11 C          62.5413   83.4566   14.3319 C.ar    1  UNL1        0.0213
     12 C          62.8499   84.2915   13.1245 C.ar    1  UNL1       -0.0007
     13 C          63.0113   83.6396   11.7833 C.ar    1  UNL1       -0.0002
     14 C          62.8640   82.1529   11.6494 C.ar    1  UNL1       -0.0000
     15 C          62.5554   81.3180   12.8567 C.ar    1  UNL1       -0.0002
     16 C          62.3941   81.9699   14.1980 C.ar    1  UNL1       -0.0007
     17 C          64.6791   91.4474   14.1417 C.3     1  UNL1        0.0871
     18 N          66.1181   91.7055   13.8060 N.pl3   1  UNL1       -0.3326
     19 H          66.8309   91.3049   14.3543 H       1  UNL1        0.1468
     20 C          66.4711   92.5740   12.6351 C.ar    1  UNL1        0.0478
     21 C          66.1334   94.0353   12.6565 C.ar    1  UNL1        0.0350
     22 C          66.4864   94.9038   11.4854 C.ar    1  UNL1        0.1001
     23 N          67.1770   94.3109   10.2931 N.ar    1  UNL1       -0.2422
     24 C          67.5146   92.8496   10.2718 C.ar    1  UNL1        0.1001
     25 C          67.1616   91.9811   11.4427 C.ar    1  UNL1        0.0350
@<TRIPOS>BOND
     1     1     2    2
     2     2     9    1
     3     9    10    1
     4    10    11    1
     5    11    12   ar
     6    12    13   ar
     7    13    14   ar
     8    14    15   ar
     9    15    16   ar
    10     2     3   am
    11     3     4    1
    12     4     5    1
    13     5     6    1
    14     6    17    1
    15    17    18    1
    16    18    20    1
    17    20    21   ar
    18    21    22   ar
    19    22    23   ar
    20    23    24   ar
    21    24    25   ar
    22     6     7    1
    23     7     8    1
    24    16    11   ar
    25     8     3    1
    26    25    20   ar
    27    18    19    1
@<TRIPOS>MOLECULE
*****
 25 27 0 0 0
SMALL
GASTEIGER

@<TRIPOS>ATOM
      1 O          64.4940   82.4076   10.0589 O.2     1  UNL1       -0.2262
      2 C          63.5943   83.1414   11.0088 C.2     1  UNL1        0.4052
      3 N          62.9511   84.4297   10.5887 N.am    1  UNL1       -0.2460
      4 C          62.0514   85.1635   11.5385 C.3     1  UNL1        0.0968
      5 C          61.4082   86.4517   11.1184 C.3     1  UNL1        0.0234
      6 C          61.6646   87.0063    9.7485 C.3     1  UNL1        0.0229
      7 C          62.5643   86.2726    8.7986 C.3     1  UNL1        0.0234
      8 C          63.2075   84.9842    9.2188 C.3     1  UNL1        0.0968
      9 O          63.3378   82.5868   12.3787 O.3     1  UNL1       -0.4295
     10 C          64.2837   82.8943   13.5015 C.3     1  UNL1        0.2367
     11 C          63.9641   83.9925   14.4720 C.ar    1  UNL1        0.0213
     12 C          62.7904   83.8585   15.3964 C.ar    1  UNL1       -0.0007
     13 C          62.4708   84.9567   16.3668 C.ar    1  UNL1       -0.0002
     14 C          63.3249   86.1889   16.4129 C.ar    1  UNL1       -0.0000
     15 C          64.4986   86.3230   15.4885 C.ar    1  UNL1       -0.0002
     16 C          64.8182   85.2248   14.5181 C.ar    1  UNL1       -0.0007
     17 C          61.0214   88.2946    9.3284 C.3     1  UNL1        0.0871
     18 N          60.8254   89.3959   10.3278 N.pl3   1  UNL1       -0.3326
     19 H          59.9160   89.6603   10.5969 H       1  UNL1        0.1468
     20 C          62.0148   90.0942   10.9172 C.ar    1  UNL1        0.0478
     21 C          62.3966   89.8483   12.3468 C.ar    1  UNL1        0.0350
     22 C          63.5861   90.5467   12.9363 C.ar    1  UNL1        0.1001
     23 N          64.3937   91.4910   12.0961 N.ar    1  UNL1       -0.2422
     24 C          64.0120   91.7370   10.6666 C.ar    1  UNL1        0.1001
     25 C          62.8225   91.0386   10.0771 C.ar    1  UNL1        0.0350
@<TRIPOS>BOND
     1     1     2    2
     2     2     9    1
     3     9    10    1
     4    10    11    1
     5    11    12   ar
     6    12    13   ar
     7    13    14   ar
     8    14    15   ar
     9    15    16   ar
    10     2     3   am
    11     3     4    1
    12     4     5    1
    13     5     6    1
    14     6    17    1
    15    17    18    1
    16    18    20    1
    17    20    21   ar
    18    21    22   ar
    19    22    23   ar
    20    23    24   ar
    21    24    25   ar
    22     6     7    1
    23     7     8    1
    24    16    11   ar
    25     8     3    1
    26    25    20   ar
    27    18    19    1
@<TRIPOS>MOLECULE
*****
 25 27 0 0 0
SMALL
GASTEIGER

@<TRIPOS>ATOM
      1 O          59.9171   88.1729    7.5923 O.2     1  UNL1       -0.2262
      2 C          60.3524   87.8601    8.9933 C.2     1  UNL1        0.4052
      3 N          61.3041   86.7291    9.2481 N.am    1  UNL1       -0.2460
      4 C          61.7394   86.4164   10.6491 C.3     1  UNL1        0.0968
      5 C          62.6911   85.2853   10.9039 C.3     1  UNL1        0.0234
      6 C          63.2076   84.4670    9.7577 C.3     1  UNL1        0.0229
      7 C          62.7723   84.7798    8.3568 C.3     1  UNL1        0.0234
      8 C          61.8205   85.9109    8.1020 C.3     1  UNL1        0.0968
      9 O          59.8359   88.6785   10.1395 O.3     1  UNL1       -0.4295
     10 C          60.2824   90.1006   10.3069 C.3     1  UNL1        0.2367
     11 C          61.5985   90.4015   10.9608 C.ar    1  UNL1        0.0213
     12 C          61.8688   89.9244   12.3569 C.ar    1  UNL1       -0.0007
     13 C          63.1848   90.2253   13.0107 C.ar    1  UNL1       -0.0002
     14 C          64.2306   91.0033   12.2684 C.ar    1  UNL1       -0.0000
     15 C          63.9603   91.4804   10.8722 C.ar    1  UNL1       -0.0002
     16 C          62.6443   91.1795   10.2184 C.ar    1  UNL1       -0.0007
     17 C          64.1593   83.3360   10.0125 C.3     1  UNL1        0.0871
     18 N          64.6821   83.0932   11.3974 N.pl3   1  UNL1       -0.3326
     19 H          65.6179   83.3083   11.6150 H       1  UNL1        0.1468
     20 C          63.7792   82.5229   12.4506 C.ar    1  UNL1        0.0478
     21 C          63.5850   83.2520   13.7470 C.ar    1  UNL1        0.0350
     22 C          62.6820   82.6816   14.8003 C.ar    1  UNL1        0.1001
     23 N          61.9734   81.3821   14.5572 N.ar    1  UNL1       -0.2422
     24 C          62.1677   80.6530   13.2608 C.ar    1  UNL1        0.1001
     25 C          63.0705   81.2234   12.2075 C.ar    1  UNL1        0.0350
@<TRIPOS>BOND
     1     1     2    2
     2     2     9    1
     3     9    10    1
     4    10    11    1
     5    11    12   ar
     6    12    13   ar
     7    13    14   ar
     8    14    15   ar
     9    15    16   ar
    10     2     3   am
    11     3     4    1
    12     4     5    1
    13     5     6    1
    14     6    17    1
    15    17    18    1
    16    18    20    1
    17    20    21   ar
    18    21    22   ar
    19    22    23   ar
    20    23    24   ar
    21    24    25   ar
    22     6     7    1
    23     7     8    1
    24    16    11   ar
    25     8     3    1
    26    25    20   ar
    27    18    19    1
