@<TRIPOS>MOLECULE
*****
 25 25 0 0 0
SMALL
GASTEIGER

@<TRIPOS>ATOM
      1 C          64.0774   87.0719   15.2041 C.2     1  UNL1        0.1534
      2 O          63.1900   87.1889   16.4077 O.2     1  UNL1       -0.2960
      3 C          64.7858   85.7812   14.9171 C.3     1  UNL1        0.0937
      4 C          64.0060   84.5036   14.8185 C.3     1  UNL1        0.1179
      5 O          64.5093   83.2636   15.4962 O.3     1  UNL1       -0.3840
      6 H          65.3438   83.4593   15.9503 H       1  UNL1        0.2104
      7 C          62.7231   84.4659   14.0422 C.3     1  UNL1        0.0297
      8 C          62.7545   84.3587   12.5463 C.3     1  UNL1        0.0025
      9 C          63.8912   83.6524   11.8687 C.3     1  UNL1        0.0001
     10 C          64.0948   82.1818   12.0830 C.3     1  UNL1        0.0000
     11 C          62.9278   81.2431   11.9998 C.3     1  UNL1        0.0000
     12 C          61.2600   81.0007   13.9771 C.3     1  UNL1        0.0000
     13 C          62.4632   80.5136   13.2254 C.3     1  UNL1        0.0000
     14 C          64.2564   88.2457   14.2874 C.3     1  UNL1        0.0693
     15 C          64.3466   89.6320   14.8529 C.3     1  UNL1        0.0342
     16 C          64.9955   90.7258   14.0575 C.ar    1  UNL1       -0.0185
     17 C          64.3662   91.1992   12.7808 C.ar    1  UNL1       -0.0009
     18 C          65.0151   92.2930   11.9854 C.ar    1  UNL1        0.0395
     19 C          66.2933   92.9132   12.4667 C.ar    1  UNL1        0.1677
     20 O          66.9422   94.0069   11.6713 O.3     1  UNL1       -0.5029
     21 C          66.9225   92.4397   13.7433 C.ar    1  UNL1        0.1718
     22 C          66.2736   91.3460   14.5387 C.ar    1  UNL1        0.0358
     23 H          66.5491   94.3027   10.8738 H       1  UNL1        0.2923
     24 O          68.2007   93.0600   14.2246 O.3     1  UNL1       -0.4684
     25 C          68.7498   92.6965   15.5723 C.3     1  UNL1        0.2526
@<TRIPOS>BOND
     1    12    13    1
     2    13    11    1
     3    11    10    1
     4    10     9    1
     5     9     8    1
     6     8     7    1
     7     7     4    1
     8     4     5    1
     9     4     3    1
    10     3     1    1
    11     1     2    2
    12     1    14    1
    13    14    15    1
    14    15    16    1
    15    16    17   ar
    16    17    18   ar
    17    18    19   ar
    18    19    20    1
    19    19    21   ar
    20    21    24    1
    21    24    25    1
    22    21    22   ar
    23    22    16   ar
    24     5     6    1
    25    20    23    1
@<TRIPOS>MOLECULE
*****
 25 25 0 0 0
SMALL
GASTEIGER

@<TRIPOS>ATOM
      1 C          59.8554   87.1474    8.4370 C.2     1  UNL1        0.1534
      2 O          58.4103   86.8909    8.1278 O.2     1  UNL1       -0.2960
      3 C          60.2956   88.5082    8.8893 C.3     1  UNL1        0.0937
      4 C          60.4283   88.8053   10.3536 C.3     1  UNL1        0.1179
      5 O          59.8485   87.8622   11.3658 O.3     1  UNL1       -0.3840
      6 H          59.4261   87.1178   10.9094 H       1  UNL1        0.2104
      7 C          61.1408   90.0454   10.8057 C.3     1  UNL1        0.0297
      8 C          62.5551   90.2974   10.3742 C.3     1  UNL1        0.0025
      9 C          63.4969   91.0314   11.2822 C.3     1  UNL1        0.0001
     10 C          63.5620   90.6787   12.7387 C.3     1  UNL1        0.0000
     11 C          63.8107   89.2597   13.1564 C.3     1  UNL1        0.0000
     12 C          63.5743   89.7322   15.7002 C.3     1  UNL1        0.0000
     13 C          64.1855   88.9503   14.5754 C.3     1  UNL1        0.0000
     14 C          60.8605   86.0432    8.2939 C.3     1  UNL1        0.0693
     15 C          62.2385   86.2048    8.8638 C.3     1  UNL1        0.0342
     16 C          62.7408   85.2401    9.8968 C.ar    1  UNL1       -0.0185
     17 C          63.5610   84.0552    9.4805 C.ar    1  UNL1       -0.0009
     18 C          64.0633   83.0905   10.5134 C.ar    1  UNL1        0.0395
     19 C          63.7454   83.3106   11.9627 C.ar    1  UNL1        0.1677
     20 O          64.2477   82.3459   12.9956 O.3     1  UNL1       -0.5029
     21 C          62.9253   84.4955   12.3790 C.ar    1  UNL1        0.1718
     22 C          62.4230   85.4602   11.3461 C.ar    1  UNL1        0.0358
     23 H          64.7601   81.6057   12.7356 H       1  UNL1        0.2923
     24 O          62.6074   84.7157   13.8284 O.3     1  UNL1       -0.4684
     25 C          63.6730   85.2043   14.7641 C.3     1  UNL1        0.2526
@<TRIPOS>BOND
     1    12    13    1
     2    13    11    1
     3    11    10    1
     4    10     9    1
     5     9     8    1
     6     8     7    1
     7     7     4    1
     8     4     5    1
     9     4     3    1
    10     3     1    1
    11     1     2    2
    12     1    14    1
    13    14    15    1
    14    15    16    1
    15    16    17   ar
    16    17    18   ar
    17    18    19   ar
    18    19    20    1
    19    19    21   ar
    20    21    24    1
    21    24    25    1
    22    21    22   ar
    23    22    16   ar
    24     5     6    1
    25    20    23    1
@<TRIPOS>MOLECULE
*****
 25 25 0 0 0
SMALL
GASTEIGER

@<TRIPOS>ATOM
      1 C          61.6843   85.7005    8.3825 C.2     1  UNL1        0.1534
      2 O          61.4649   85.2077    6.9829 O.2     1  UNL1       -0.2960
      3 C          60.5823   86.4145    9.1077 C.3     1  UNL1        0.0937
      4 C          59.7321   87.4149    8.3822 C.3     1  UNL1        0.1179
      5 O          58.6393   86.9472    7.4671 O.3     1  UNL1       -0.3840
      6 H          58.6177   85.9775    7.4586 H       1  UNL1        0.2104
      7 C          59.9747   88.8829    8.5716 C.3     1  UNL1        0.0297
      8 C          60.5632   89.3862    9.8562 C.3     1  UNL1        0.0025
      9 C          62.0520   89.4835   10.0118 C.3     1  UNL1        0.0001
     10 C          62.6699   89.4088   11.3766 C.3     1  UNL1        0.0000
     11 C          63.4156   90.5879   11.9278 C.3     1  UNL1        0.0000
     12 C          64.1783   89.2952   14.0484 C.3     1  UNL1        0.0000
     13 C          63.8630   90.5898   13.3595 C.3     1  UNL1        0.0000
     14 C          63.0058   85.4795    9.0569 C.3     1  UNL1        0.0693
     15 C          63.4157   84.0966    9.4686 C.3     1  UNL1        0.0342
     16 C          63.1645   83.6261   10.8706 C.ar    1  UNL1       -0.0185
     17 C          62.9287   82.1698   11.1420 C.ar    1  UNL1       -0.0009
     18 C          62.6775   81.6993   12.5440 C.ar    1  UNL1        0.0395
     19 C          62.6620   82.6850   13.6745 C.ar    1  UNL1        0.1677
     20 O          62.4108   82.2144   15.0765 O.3     1  UNL1       -0.5029
     21 C          62.8978   84.1412   13.4031 C.ar    1  UNL1        0.1718
     22 C          63.1490   84.6118   12.0011 C.ar    1  UNL1        0.0358
     23 H          62.2636   81.3047   15.2460 H       1  UNL1        0.2923
     24 O          62.8823   85.1270   14.5336 O.3     1  UNL1       -0.4684
     25 C          64.1646   85.7433   15.0089 C.3     1  UNL1        0.2526
@<TRIPOS>BOND
     1    12    13    1
     2    13    11    1
     3    11    10    1
     4    10     9    1
     5     9     8    1
     6     8     7    1
     7     7     4    1
     8     4     5    1
     9     4     3    1
    10     3     1    1
    11     1     2    2
    12     1    14    1
    13    14    15    1
    14    15    16    1
    15    16    17   ar
    16    17    18   ar
    17    18    19   ar
    18    19    20    1
    19    19    21   ar
    20    21    24    1
    21    24    25    1
    22    21    22   ar
    23    22    16   ar
    24     5     6    1
    25    20    23    1
@<TRIPOS>MOLECULE
*****
 25 25 0 0 0
SMALL
GASTEIGER

@<TRIPOS>ATOM
      1 C          62.0476   88.6409   11.0539 C.2     1  UNL1        0.1534
      2 O          61.4005   89.0999   12.3269 O.2     1  UNL1       -0.2960
      3 C          61.9559   87.2013   10.6426 C.3     1  UNL1        0.0937
      4 C          62.5054   86.1294   11.5366 C.3     1  UNL1        0.1179
      5 O          63.1318   86.4959   12.8494 O.3     1  UNL1       -0.3840
      6 H          63.1005   87.4585   12.9651 H       1  UNL1        0.2104
      7 C          62.4284   84.6912   11.1179 C.3     1  UNL1        0.0297
      8 C          63.5635   84.0688   10.3601 C.3     1  UNL1        0.0025
      9 C          63.8796   82.6140   10.5438 C.3     1  UNL1        0.0001
     10 C          63.9299   82.0257   11.9227 C.3     1  UNL1        0.0000
     11 C          62.8972   81.0250   12.3493 C.3     1  UNL1        0.0000
     12 C          62.2183   82.4047   14.4434 C.3     1  UNL1        0.0000
     13 C          61.8803   81.3933   13.3886 C.3     1  UNL1        0.0000
     14 C          62.7864   89.6215   10.1922 C.3     1  UNL1        0.0693
     15 C          62.8644   91.0642   10.5953 C.3     1  UNL1        0.0342
     16 C          64.0467   91.5631   11.3719 C.ar    1  UNL1       -0.0185
     17 C          64.2255   91.1617   12.8061 C.ar    1  UNL1       -0.0009
     18 C          65.4079   91.6606   13.5828 C.ar    1  UNL1        0.0395
     19 C          66.4114   92.5609   12.9253 C.ar    1  UNL1        0.1677
     20 O          67.5937   93.0598   13.7020 O.3     1  UNL1       -0.5029
     21 C          66.2326   92.9623   11.4911 C.ar    1  UNL1        0.1718
     22 C          65.0503   92.4634   10.7145 C.ar    1  UNL1        0.0358
     23 H          67.7054   92.8091   14.5979 H       1  UNL1        0.2923
     24 O          67.2361   93.8627   10.8336 O.3     1  UNL1       -0.4684
     25 C          67.4223   93.8182    9.3459 C.3     1  UNL1        0.2526
@<TRIPOS>BOND
     1    12    13    1
     2    13    11    1
     3    11    10    1
     4    10     9    1
     5     9     8    1
     6     8     7    1
     7     7     4    1
     8     4     5    1
     9     4     3    1
    10     3     1    1
    11     1     2    2
    12     1    14    1
    13    14    15    1
    14    15    16    1
    15    16    17   ar
    16    17    18   ar
    17    18    19   ar
    18    19    20    1
    19    19    21   ar
    20    21    24    1
    21    24    25    1
    22    21    22   ar
    23    22    16   ar
    24     5     6    1
    25    20    23    1
@<TRIPOS>MOLECULE
*****
 25 25 0 0 0
SMALL
GASTEIGER

@<TRIPOS>ATOM
      1 C          63.4997   82.9875   11.3273 C.2     1  UNL1        0.1534
      2 O          64.8962   82.4716   11.1441 O.2     1  UNL1       -0.2960
      3 C          62.4835   82.1588   12.0557 C.3     1  UNL1        0.0937
      4 C          62.5518   82.0297   13.5486 C.3     1  UNL1        0.1179
      5 O          62.8814   80.7061   14.1726 O.3     1  UNL1       -0.3840
      6 H          63.0204   80.0457   13.4758 H       1  UNL1        0.2104
      7 C          62.2906   83.2242   14.4174 C.3     1  UNL1        0.0297
      8 C          63.3888   83.7850   15.2714 C.3     1  UNL1        0.0025
      9 C          64.7207   84.1101   14.6626 C.3     1  UNL1        0.0001
     10 C          65.1489   85.5401   14.5151 C.3     1  UNL1        0.0000
     11 C          64.3592   86.6314   15.1748 C.3     1  UNL1        0.0000
     12 C          63.7123   89.1418   15.3461 C.3     1  UNL1        0.0000
     13 C          64.3774   88.0193   14.6062 C.3     1  UNL1        0.0000
     14 C          63.1194   84.3321   10.7820 C.3     1  UNL1        0.0693
     15 C          62.6853   85.4241   11.7143 C.3     1  UNL1        0.0342
     16 C          62.0681   86.6766   11.1666 C.ar    1  UNL1       -0.0185
     17 C          62.5943   88.0173   11.5856 C.ar    1  UNL1       -0.0009
     18 C          61.9770   89.2699   11.0378 C.ar    1  UNL1        0.0395
     19 C          60.8335   89.1818   10.0711 C.ar    1  UNL1        0.1677
     20 O          60.2163   90.4344    9.5233 O.3     1  UNL1       -0.5029
     21 C          60.3073   87.8411    9.6521 C.ar    1  UNL1        0.1718
     22 C          60.9246   86.5885   10.1998 C.ar    1  UNL1        0.0358
     23 H          60.5450   91.2719    9.7851 H       1  UNL1        0.2923
     24 O          59.1638   87.7530    8.6853 O.3     1  UNL1       -0.4684
     25 C          59.1762   86.7162    7.6014 C.3     1  UNL1        0.2526
@<TRIPOS>BOND
     1    12    13    1
     2    13    11    1
     3    11    10    1
     4    10     9    1
     5     9     8    1
     6     8     7    1
     7     7     4    1
     8     4     5    1
     9     4     3    1
    10     3     1    1
    11     1     2    2
    12     1    14    1
    13    14    15    1
    14    15    16    1
    15    16    17   ar
    16    17    18   ar
    17    18    19   ar
    18    19    20    1
    19    19    21   ar
    20    21    24    1
    21    24    25    1
    22    21    22   ar
    23    22    16   ar
    24     5     6    1
    25    20    23    1
@<TRIPOS>MOLECULE
*****
 25 25 0 0 0
SMALL
GASTEIGER

@<TRIPOS>ATOM
      1 C          60.6543   89.5860   11.5581 C.2     1  UNL1        0.1534
      2 O          59.6988   88.9811   12.5434 O.2     1  UNL1       -0.2960
      3 C          60.1521   90.0853   10.2357 C.3     1  UNL1        0.0937
      4 C          60.0269   89.1418    9.0763 C.3     1  UNL1        0.1179
      5 O          60.0299   89.6729    7.6734 O.3     1  UNL1       -0.3840
      6 H          60.1197   90.6385    7.6935 H       1  UNL1        0.2104
      7 C          59.8987   87.6673    9.3198 C.3     1  UNL1        0.0297
      8 C          61.0246   86.7461    8.9542 C.3     1  UNL1        0.0025
      9 C          62.1593   86.5317    9.9117 C.3     1  UNL1        0.0001
     10 C          61.9306   85.7796   11.1892 C.3     1  UNL1        0.0000
     11 C          62.7718   84.5812   11.5149 C.3     1  UNL1        0.0000
     12 C          64.4133   82.7199   10.7462 C.3     1  UNL1        0.0000
     13 C          63.4431   83.8145   10.4142 C.3     1  UNL1        0.0000
     14 C          62.1122   89.6918   11.8950 C.3     1  UNL1        0.0693
     15 C          62.9720   90.7029   11.1962 C.3     1  UNL1        0.0342
     16 C          64.1474   91.3067   11.9062 C.ar    1  UNL1       -0.0185
     17 C          64.4457   90.9211   13.3247 C.ar    1  UNL1       -0.0009
     18 C          65.6211   91.5249   14.0347 C.ar    1  UNL1        0.0395
     19 C          66.4980   92.5142   13.3261 C.ar    1  UNL1        0.1677
     20 O          67.6733   93.1180   14.0360 O.3     1  UNL1       -0.5029
     21 C          66.1996   92.8998   11.9076 C.ar    1  UNL1        0.1718
     22 C          65.0243   92.2960   11.1976 C.ar    1  UNL1        0.0358
     23 H          67.8597   92.8772   14.9222 H       1  UNL1        0.2923
     24 O          67.0766   93.8892   11.1989 O.3     1  UNL1       -0.4684
     25 C          66.4881   95.1554   10.6509 C.3     1  UNL1        0.2526
@<TRIPOS>BOND
     1    12    13    1
     2    13    11    1
     3    11    10    1
     4    10     9    1
     5     9     8    1
     6     8     7    1
     7     7     4    1
     8     4     5    1
     9     4     3    1
    10     3     1    1
    11     1     2    2
    12     1    14    1
    13    14    15    1
    14    15    16    1
    15    16    17   ar
    16    17    18   ar
    17    18    19   ar
    18    19    20    1
    19    19    21   ar
    20    21    24    1
    21    24    25    1
    22    21    22   ar
    23    22    16   ar
    24     5     6    1
    25    20    23    1
@<TRIPOS>MOLECULE
*****
 25 25 0 0 0
SMALL
GASTEIGER

@<TRIPOS>ATOM
      1 C          61.1043   88.8340   10.0554 C.2     1  UNL1        0.1534
      2 O          60.1050   89.9497    9.9745 O.2     1  UNL1       -0.2960
      3 C          62.5611   89.1435   10.2349 C.3     1  UNL1        0.0937
      4 C          62.9904   90.5223   10.6406 C.3     1  UNL1        0.1179
      5 O          62.9037   91.6539    9.6596 O.3     1  UNL1       -0.3840
      6 H          62.5523   91.3254    8.8173 H       1  UNL1        0.2104
      7 C          63.5065   90.7696   12.0271 C.3     1  UNL1        0.0297
      8 C          63.4986   89.6623   13.0389 C.3     1  UNL1        0.0025
      9 C          64.4548   89.6953   14.1943 C.3     1  UNL1        0.0001
     10 C          64.5041   90.8953   15.0929 C.3     1  UNL1        0.0000
     11 C          65.7320   91.7561   15.1278 C.3     1  UNL1        0.0000
     12 C          66.4722   93.3953   13.2530 C.3     1  UNL1        0.0000
     13 C          66.4949   92.0260   13.8648 C.3     1  UNL1        0.0000
     14 C          60.6470   87.4089    9.9569 C.3     1  UNL1        0.0693
     15 C          61.4912   86.3982    9.2387 C.3     1  UNL1        0.0342
     16 C          62.3318   85.4321   10.0198 C.ar    1  UNL1       -0.0185
     17 C          63.2097   84.4507    9.3014 C.ar    1  UNL1       -0.0009
     18 C          64.0502   83.4846   10.0825 C.ar    1  UNL1        0.0395
     19 C          64.0129   83.4999   11.5819 C.ar    1  UNL1        0.1677
     20 O          64.8535   82.5338   12.3630 O.3     1  UNL1       -0.5029
     21 C          63.1350   84.4813   12.3003 C.ar    1  UNL1        0.1718
     22 C          62.2945   85.4474   11.5192 C.ar    1  UNL1        0.0358
     23 H          65.4019   81.9208   11.9143 H       1  UNL1        0.2923
     24 O          63.0977   84.4967   13.7998 O.3     1  UNL1       -0.4684
     25 C          63.9778   85.4422   14.5623 C.3     1  UNL1        0.2526
@<TRIPOS>BOND
     1    12    13    1
     2    13    11    1
     3    11    10    1
     4    10     9    1
     5     9     8    1
     6     8     7    1
     7     7     4    1
     8     4     5    1
     9     4     3    1
    10     3     1    1
    11     1     2    2
    12     1    14    1
    13    14    15    1
    14    15    16    1
    15    16    17   ar
    16    17    18   ar
    17    18    19   ar
    18    19    20    1
    19    19    21   ar
    20    21    24    1
    21    24    25    1
    22    21    22   ar
    23    22    16   ar
    24     5     6    1
    25    20    23    1
@<TRIPOS>MOLECULE
*****
 25 25 0 0 0
SMALL
GASTEIGER

@<TRIPOS>ATOM
      1 C          63.7814   90.2129   13.1424 C.2     1  UNL1        0.1534
      2 O          63.8551   91.6701   12.7947 O.2     1  UNL1       -0.2960
      3 C          64.5660   89.6783   14.3038 C.3     1  UNL1        0.0937
      4 C          64.0352   88.5227   15.0992 C.3     1  UNL1        0.1179
      5 O          62.9880   88.7523   16.1484 O.3     1  UNL1       -0.3840
      6 H          62.7674   89.6962   16.1839 H       1  UNL1        0.2104
      7 C          64.5515   87.1374   14.8454 C.3     1  UNL1        0.0297
      8 C          64.0116   85.9800   15.6321 C.3     1  UNL1        0.0025
      9 C          63.6698   84.6952   14.9373 C.3     1  UNL1        0.0001
     10 C          64.1037   84.4711   13.5191 C.3     1  UNL1        0.0000
     11 C          63.1084   84.5881   12.4029 C.3     1  UNL1        0.0000
     12 C          62.8154   82.0752   11.8118 C.3     1  UNL1        0.0000
     13 C          63.0002   83.4989   11.3773 C.3     1  UNL1        0.0000
     14 C          62.9232   89.2901   12.3288 C.3     1  UNL1        0.0693
     15 C          62.5433   89.6612   10.9260 C.3     1  UNL1        0.0342
     16 C          61.7739   88.6935   10.0765 C.ar    1  UNL1       -0.0185
     17 C          62.0433   87.2219   10.1845 C.ar    1  UNL1       -0.0009
     18 C          61.2740   86.2542    9.3349 C.ar    1  UNL1        0.0395
     19 C          60.2352   86.7582    8.3774 C.ar    1  UNL1        0.1677
     20 O          59.4659   85.7905    7.5278 O.3     1  UNL1       -0.5029
     21 C          59.9658   88.2298    8.2693 C.ar    1  UNL1        0.1718
     22 C          60.7352   89.1974    9.1189 C.ar    1  UNL1        0.0358
     23 H          59.6342   84.8712    7.5953 H       1  UNL1        0.2923
     24 O          58.9270   88.7338    7.3117 O.3     1  UNL1       -0.4684
     25 C          59.3041   89.7218    6.2479 C.3     1  UNL1        0.2526
@<TRIPOS>BOND
     1    12    13    1
     2    13    11    1
     3    11    10    1
     4    10     9    1
     5     9     8    1
     6     8     7    1
     7     7     4    1
     8     4     5    1
     9     4     3    1
    10     3     1    1
    11     1     2    2
    12     1    14    1
    13    14    15    1
    14    15    16    1
    15    16    17   ar
    16    17    18   ar
    17    18    19   ar
    18    19    20    1
    19    19    21   ar
    20    21    24    1
    21    24    25    1
    22    21    22   ar
    23    22    16   ar
    24     5     6    1
    25    20    23    1
@<TRIPOS>MOLECULE
*****
 25 25 0 0 0
SMALL
GASTEIGER

@<TRIPOS>ATOM
      1 C          61.1746   87.9147   10.7840 C.2     1  UNL1        0.1534
      2 O          61.3176   86.8198   11.7992 O.2     1  UNL1       -0.2960
      3 C          59.8881   88.0745   10.0294 C.3     1  UNL1        0.0937
      4 C          59.9118   88.3146    8.5489 C.3     1  UNL1        0.1179
      5 O          60.1027   89.7043    8.0175 O.3     1  UNL1       -0.3840
      6 H          60.1943   90.3239    8.7581 H       1  UNL1        0.2104
      7 C          59.7447   87.1650    7.6000 C.3     1  UNL1        0.0297
      8 C          60.2961   85.8153    7.9524 C.3     1  UNL1        0.0025
      9 C          61.6707   85.4243    7.4967 C.3     1  UNL1        0.0001
     10 C          62.8404   85.5802    8.4227 C.3     1  UNL1        0.0000
     11 C          62.9443   84.7247    9.6503 C.3     1  UNL1        0.0000
     12 C          64.4183   83.0667   11.0026 C.3     1  UNL1        0.0000
     13 C          63.9128   83.5798    9.6869 C.3     1  UNL1        0.0000
     14 C          62.3181   88.8498   10.5234 C.3     1  UNL1        0.0693
     15 C          62.2046   90.2970   10.9012 C.3     1  UNL1        0.0342
     16 C          63.4036   91.0325   11.4220 C.ar    1  UNL1       -0.0185
     17 C          64.2363   91.8636   10.4914 C.ar    1  UNL1       -0.0009
     18 C          65.4353   92.5991   11.0122 C.ar    1  UNL1        0.0395
     19 C          65.8018   92.5035   12.4636 C.ar    1  UNL1        0.1677
     20 O          67.0009   93.2390   12.9844 O.3     1  UNL1       -0.5029
     21 C          64.9692   91.6724   13.3942 C.ar    1  UNL1        0.1718
     22 C          63.7701   90.9369   12.8734 C.ar    1  UNL1        0.0358
     23 H          67.5210   93.7582   12.4030 H       1  UNL1        0.2923
     24 O          65.3357   91.5768   14.8456 O.3     1  UNL1       -0.4684
     25 C          64.2796   91.2768   15.8676 C.3     1  UNL1        0.2526
@<TRIPOS>BOND
     1    12    13    1
     2    13    11    1
     3    11    10    1
     4    10     9    1
     5     9     8    1
     6     8     7    1
     7     7     4    1
     8     4     5    1
     9     4     3    1
    10     3     1    1
    11     1     2    2
    12     1    14    1
    13    14    15    1
    14    15    16    1
    15    16    17   ar
    16    17    18   ar
    17    18    19   ar
    18    19    20    1
    19    19    21   ar
    20    21    24    1
    21    24    25    1
    22    21    22   ar
    23    22    16   ar
    24     5     6    1
    25    20    23    1
