@<TRIPOS>MOLECULE
*****
 39 41 0 0 0
SMALL
GASTEIGER

@<TRIPOS>ATOM
      1 C          63.5669   86.8219   14.3290 C.3     1  UNL1        0.0241
      2 C          64.1029   87.6996   13.2372 C.3     1  UNL1        0.0232
      3 C          64.4059   89.1421   13.5152 C.3     1  UNL1        0.0938
      4 N          64.1729   89.7069   14.8852 N.am    1  UNL1       -0.2760
      5 C          64.4760   91.1494   15.1632 C.2     1  UNL1        0.2520
      6 O          64.2430   91.7142   16.5332 O.2     1  UNL1       -0.2698
      7 C          63.6369   88.8291   15.9771 C.3     1  UNL1        0.0938
      8 C          63.3339   87.3867   15.6990 C.3     1  UNL1        0.0232
      9 C          65.0120   92.0272   14.0714 C.ar    1  UNL1        0.0878
     10 C          64.4409   91.9359   12.6873 C.ar    1  UNL1        0.0089
     11 C          64.9770   92.8137   11.5954 C.ar    1  UNL1        0.0187
     12 C          66.0841   93.7827   11.8876 C.ar    1  UNL1        0.1087
     13 C          66.6551   93.8739   13.2717 C.ar    1  UNL1        0.0557
     14 C          66.1191   92.9962   14.3635 C.ar    1  UNL1        0.1524
     15 S          66.6201   94.6604   10.7957 S.O2    1  UNL1        0.0105
     16 C          67.1561   95.5382    9.7038 C.3     1  UNL1        0.1816
     17 O          65.6987   95.7619   11.2289 O.2     1  UNL1       -0.1686
     18 O          67.5415   93.5589   10.3626 O.2     1  UNL1       -0.1686
     19 O          66.6902   93.0875   15.7476 O.3     1  UNL1       -0.4043
     20 C          68.1228   92.7176   15.9937 C.3     1  UNL1        0.5753
     21 F          69.5555   92.3477   16.2398 F       1  UNL1       -0.1328
     22 F          68.4302   94.1427   16.3464 F       1  UNL1       -0.1328
     23 F          67.8155   91.2924   15.6410 F       1  UNL1       -0.1328
     24 C          63.0688   85.7002   12.5988 C.3     1  UNL1        0.0240
     25 C          63.2638   85.3793   14.0510 C.3     1  UNL1        0.1151
     26 C          63.4588   85.0584   15.5032 C.3     1  UNL1        0.0240
     27 S          62.9608   83.9369   13.7729 S.O2    1  UNL1        0.0054
     28 O          62.1784   83.8550   15.0501 O.2     1  UNL1       -0.1687
     29 O          63.7431   84.0187   12.4957 O.2     1  UNL1       -0.1687
     30 C          62.6577   82.4943   13.4948 C.ar    1  UNL1        0.1055
     31 C          62.0370   81.6395   14.5596 C.ar    1  UNL1        0.0183
     32 C          61.7340   80.1970   14.2814 C.ar    1  UNL1        0.0013
     33 C          62.0518   79.6094   12.9384 C.ar    1  UNL1        0.0039
     34 C          62.6725   80.4642   11.8736 C.ar    1  UNL1        0.0727
     35 C          62.9755   81.9066   12.1517 C.ar    1  UNL1        0.0222
     36 C          62.9903   79.8765   10.5306 C.3     1  UNL1        0.4186
     37 F          63.3081   79.2888    9.1876 F       1  UNL1       -0.1659
     38 F          63.3387   81.2416   10.0157 F       1  UNL1       -0.1659
     39 F          62.6419   78.5114   11.0455 F       1  UNL1       -0.1659
@<TRIPOS>BOND
     1    24    25    1
     2    25    26    1
     3    25     1    1
     4     1     2    1
     5     2     3    1
     6     3     4    1
     7     4     5   am
     8     5     6    2
     9     5     9    1
    10     9    10   ar
    11    10    11   ar
    12    11    12   ar
    13    12    15    1
    14    15    16    1
    15    15    17    2
    16    15    18    2
    17    12    13   ar
    18    13    14   ar
    19    14    19    1
    20    19    20    1
    21    20    21    1
    22    20    22    1
    23    20    23    1
    24     4     7    1
    25     7     8    1
    26    25    27    1
    27    27    28    2
    28    27    29    2
    29    27    30    1
    30    30    31   ar
    31    31    32   ar
    32    32    33   ar
    33    33    34   ar
    34    34    36    1
    35    36    37    1
    36    36    38    1
    37    36    39    1
    38    34    35   ar
    39     8     1    1
    40    35    30   ar
    41    14     9   ar
@<TRIPOS>MOLECULE
*****
 39 41 0 0 0
SMALL
GASTEIGER

@<TRIPOS>ATOM
      1 C          62.9982   86.3029   12.4686 C.3     1  UNL1        0.0241
      2 C          64.0681   86.9630   13.2867 C.3     1  UNL1        0.0232
      3 C          64.2501   88.4505   13.2235 C.3     1  UNL1        0.0938
      4 N          63.3622   89.2779   12.3420 N.am    1  UNL1       -0.2760
      5 C          63.5443   90.7656   12.2788 C.2     1  UNL1        0.2520
      6 O          62.6563   91.5930   11.3974 O.2     1  UNL1       -0.2698
      7 C          62.2923   88.6178   11.5239 C.3     1  UNL1        0.0938
      8 C          62.1103   87.1303   11.5871 C.3     1  UNL1        0.0232
      9 C          64.6142   91.4257   13.0970 C.ar    1  UNL1        0.0878
     10 C          64.5861   91.3211   14.5930 C.ar    1  UNL1        0.0089
     11 C          65.6562   91.9813   15.4112 C.ar    1  UNL1        0.0187
     12 C          66.7542   92.7459   14.7333 C.ar    1  UNL1        0.1087
     13 C          66.7822   92.8505   13.2372 C.ar    1  UNL1        0.0557
     14 C          65.7123   92.1904   12.4190 C.ar    1  UNL1        0.1524
     15 S          67.8241   93.4060   15.5515 S.O2    1  UNL1        0.0105
     16 C          68.8941   94.0662   16.3697 C.3     1  UNL1        0.1816
     17 O          66.8662   93.5373   16.6982 O.2     1  UNL1       -0.1686
     18 O          68.7820   93.2748   14.4047 O.2     1  UNL1       -0.1686
     19 O          65.7403   92.2950   10.9229 O.3     1  UNL1       -0.4043
     20 C          66.8158   93.0926   10.2469 C.3     1  UNL1        0.5753
     21 F          67.8912   93.8903    9.5709 F       1  UNL1       -0.1328
     22 F          65.9577   94.3201   10.3303 F       1  UNL1       -0.1328
     23 F          67.6738   91.8652   10.1635 F       1  UNL1       -0.1328
     24 C          62.3327   84.8141   11.1119 C.3     1  UNL1        0.0240
     25 C          62.8162   84.8152   12.5318 C.3     1  UNL1        0.1151
     26 C          63.2996   84.8164   13.9517 C.3     1  UNL1        0.0240
     27 S          62.6341   83.3277   12.5950 S.O2    1  UNL1        0.0054
     28 O          62.2862   83.4321   14.0503 O.2     1  UNL1       -0.1687
     29 O          62.9820   83.2233   11.1397 O.2     1  UNL1       -0.1687
     30 C          62.4520   81.8401   12.6582 C.ar    1  UNL1        0.1055
     31 C          61.9035   81.2037   13.9007 C.ar    1  UNL1        0.0183
     32 C          61.7214   79.7162   13.9638 C.ar    1  UNL1        0.0013
     33 C          62.0880   78.8650   12.7844 C.ar    1  UNL1        0.0039
     34 C          62.6366   79.5014   11.5418 C.ar    1  UNL1        0.0727
     35 C          62.8186   80.9889   11.4787 C.ar    1  UNL1        0.0222
     36 C          63.0031   78.6502   10.3623 C.3     1  UNL1        0.4186
     37 F          63.3697   77.7990    9.1828 F       1  UNL1       -0.1659
     38 F          63.0302   79.8703    9.4902 F       1  UNL1       -0.1659
     39 F          62.9760   77.4301   11.2344 F       1  UNL1       -0.1659
@<TRIPOS>BOND
     1    24    25    1
     2    25    26    1
     3    25     1    1
     4     1     2    1
     5     2     3    1
     6     3     4    1
     7     4     5   am
     8     5     6    2
     9     5     9    1
    10     9    10   ar
    11    10    11   ar
    12    11    12   ar
    13    12    15    1
    14    15    16    1
    15    15    17    2
    16    15    18    2
    17    12    13   ar
    18    13    14   ar
    19    14    19    1
    20    19    20    1
    21    20    21    1
    22    20    22    1
    23    20    23    1
    24     4     7    1
    25     7     8    1
    26    25    27    1
    27    27    28    2
    28    27    29    2
    29    27    30    1
    30    30    31   ar
    31    31    32   ar
    32    32    33   ar
    33    33    34   ar
    34    34    36    1
    35    36    37    1
    36    36    38    1
    37    36    39    1
    38    34    35   ar
    39     8     1    1
    40    35    30   ar
    41    14     9   ar
@<TRIPOS>MOLECULE
*****
 39 41 0 0 0
SMALL
GASTEIGER

@<TRIPOS>ATOM
      1 C          63.0838   86.4620   12.5882 C.3     1  UNL1        0.0241
      2 C          64.1991   87.0881   13.3719 C.3     1  UNL1        0.0232
      3 C          64.4144   88.5714   13.3159 C.3     1  UNL1        0.0938
      4 N          63.5145   89.4287   12.4761 N.am    1  UNL1       -0.2760
      5 C          63.7298   90.9122   12.4201 C.2     1  UNL1        0.2520
      6 O          62.8299   91.7695   11.5804 O.2     1  UNL1       -0.2698
      7 C          62.3992   88.8027   11.6924 C.3     1  UNL1        0.0938
      8 C          62.1839   87.3193   11.7485 C.3     1  UNL1        0.0232
      9 C          64.8451   91.5383   13.2038 C.ar    1  UNL1        0.0878
     10 C          66.1295   91.9030   12.5202 C.ar    1  UNL1        0.0089
     11 C          67.2447   92.5291   13.3040 C.ar    1  UNL1        0.0187
     12 C          67.0756   92.7904   14.7713 C.ar    1  UNL1        0.1087
     13 C          65.7912   92.4257   15.4549 C.ar    1  UNL1        0.0557
     14 C          64.6760   91.7996   14.6712 C.ar    1  UNL1        0.1524
     15 S          68.1909   93.4165   15.5550 S.O2    1  UNL1        0.0105
     16 C          69.3062   94.0426   16.3386 C.3     1  UNL1        0.1816
     17 O          69.1642   93.0240   14.4833 O.2     1  UNL1       -0.1686
     18 O          67.2175   93.8089   16.6266 O.2     1  UNL1       -0.1686
     19 O          63.3916   91.4349   15.3548 O.3     1  UNL1       -0.4043
     20 C          63.3620   90.3068   16.3430 C.3     1  UNL1        0.5753
     21 F          63.3324   89.1787   17.3311 F       1  UNL1       -0.1328
     22 F          62.5711   89.4788   15.3740 F       1  UNL1       -0.1328
     23 F          64.1529   91.1348   17.3119 F       1  UNL1       -0.1328
     24 C          62.2673   85.0140   11.2705 C.3     1  UNL1        0.0240
     25 C          62.8684   84.9785   12.6442 C.3     1  UNL1        0.1151
     26 C          63.4696   84.9431   14.0180 C.3     1  UNL1        0.0240
     27 S          62.6531   83.4952   12.7002 S.O2    1  UNL1        0.0054
     28 O          62.7623   83.5357   14.1956 O.2     1  UNL1       -0.1687
     29 O          62.5438   83.4546   11.2048 O.2     1  UNL1       -0.1687
     30 C          62.4377   82.0117   12.7561 C.ar    1  UNL1        0.1055
     31 C          61.8508   81.3849   13.9860 C.ar    1  UNL1        0.0183
     32 C          61.6354   79.9015   14.0419 C.ar    1  UNL1        0.0013
     33 C          62.0069   79.0450   12.8679 C.ar    1  UNL1        0.0039
     34 C          62.5938   79.6718   11.6380 C.ar    1  UNL1        0.0727
     35 C          62.8092   81.1551   11.5821 C.ar    1  UNL1        0.0222
     36 C          62.9653   78.8152   10.4640 C.3     1  UNL1        0.4186
     37 F          63.3368   77.9586    9.2900 F       1  UNL1       -0.1659
     38 F          62.8620   77.5910   11.3245 F       1  UNL1       -0.1659
     39 F          63.0686   80.0395    9.6034 F       1  UNL1       -0.1659
@<TRIPOS>BOND
     1    24    25    1
     2    25    26    1
     3    25     1    1
     4     1     2    1
     5     2     3    1
     6     3     4    1
     7     4     5   am
     8     5     6    2
     9     5     9    1
    10     9    10   ar
    11    10    11   ar
    12    11    12   ar
    13    12    15    1
    14    15    16    1
    15    15    17    2
    16    15    18    2
    17    12    13   ar
    18    13    14   ar
    19    14    19    1
    20    19    20    1
    21    20    21    1
    22    20    22    1
    23    20    23    1
    24     4     7    1
    25     7     8    1
    26    25    27    1
    27    27    28    2
    28    27    29    2
    29    27    30    1
    30    30    31   ar
    31    31    32   ar
    32    32    33   ar
    33    33    34   ar
    34    34    36    1
    35    36    37    1
    36    36    38    1
    37    36    39    1
    38    34    35   ar
    39     8     1    1
    40    35    30   ar
    41    14     9   ar
