@<TRIPOS>MOLECULE
*****
 28 30 0 0 0
SMALL
GASTEIGER

@<TRIPOS>ATOM
      1 C          65.3807   91.3801   13.6919 C.2     1  UNL1        0.2503
      2 O          66.4604   90.9565   14.6431 O.2     1  UNL1       -0.2698
      3 N          64.0290   90.7329   13.7554 N.am    1  UNL1       -0.2804
      4 H          63.3204   91.0109   13.1311 H       1  UNL1        0.1552
      5 C          66.1967   94.5923   10.6479 C.ar    1  UNL1        0.1066
      6 C          65.5692   93.2979   10.2226 C.ar    1  UNL1        0.0185
      7 C          65.2972   92.2272   11.2372 C.ar    1  UNL1        0.0067
      8 C          65.6527   92.4508   12.6772 C.ar    1  UNL1        0.0643
      9 C          66.2801   93.7452   13.1025 C.ar    1  UNL1        0.0633
     10 CL         66.6356   93.9688   14.5426 Cl      1  UNL1       -0.0821
     11 C          66.5521   94.8159   12.0879 C.ar    1  UNL1        0.0299
     12 C          66.7406   96.7337    8.6185 C.3     1  UNL1        0.1816
     13 S          66.4687   95.6630    9.6332 S.O2    1  UNL1        0.0105
     14 O          67.7662   94.9985    9.2798 O.2     1  UNL1       -0.1686
     15 O          65.1711   96.3275    9.9866 O.2     1  UNL1       -0.1686
     16 C          63.7570   89.6622   14.7701 C.ar    1  UNL1        0.0506
     17 C          63.3910   90.0366   16.1758 C.ar    1  UNL1        0.0155
     18 C          63.1190   88.9659   17.1905 C.ar    1  UNL1        0.0127
     19 C          63.2131   87.5207   16.7994 C.ar    1  UNL1        0.0592
     20 CL         62.9411   86.4500   17.8141 Cl      1  UNL1       -0.0822
     21 C          63.5791   87.1464   15.3938 C.ar    1  UNL1        0.0295
     22 C          63.8511   88.2171   14.3791 C.ar    1  UNL1        0.0170
     23 C          63.6731   85.7013   15.0028 C.ar    1  UNL1        0.0822
     24 C          64.9931   85.1201   14.5909 C.ar    1  UNL1        0.0192
     25 C          65.0871   83.6750   14.1999 C.ar    1  UNL1        0.0031
     26 C          63.8611   82.8111   14.2209 C.ar    1  UNL1        0.0207
     27 C          62.5410   83.3923   14.6328 C.ar    1  UNL1        0.0988
     28 N          62.4470   84.8374   15.0238 N.ar    1  UNL1       -0.2438
@<TRIPOS>BOND
     1    12    13    1
     2    13    14    2
     3    13    15    2
     4    13     5    1
     5     5     6   ar
     6     6     7   ar
     7     7     8   ar
     8     8     1    1
     9     1     2    2
    10     1     3   am
    11     3    16    1
    12    16    17   ar
    13    17    18   ar
    14    18    19   ar
    15    19    20    1
    16    19    21   ar
    17    21    23    1
    18    23    24   ar
    19    24    25   ar
    20    25    26   ar
    21    26    27   ar
    22    27    28   ar
    23    21    22   ar
    24     8     9   ar
    25     9    10    1
    26     9    11   ar
    27    11     5   ar
    28    22    16   ar
    29    28    23   ar
    30     3     4    1
@<TRIPOS>MOLECULE
*****
 28 30 0 0 0
SMALL
GASTEIGER

@<TRIPOS>ATOM
      1 C          64.1559   90.8626   13.2441 C.2     1  UNL1        0.2503
      2 O          62.7439   90.4505   12.9503 O.2     1  UNL1       -0.2698
      3 N          64.9177   90.1934   14.3494 N.am    1  UNL1       -0.2804
      4 H          65.8445   90.4639   14.5424 H       1  UNL1        0.1552
      5 C          66.1063   94.1061   10.8099 C.ar    1  UNL1        0.1066
      6 C          66.4465   93.9511   12.2625 C.ar    1  UNL1        0.0185
      7 C          65.7964   92.8700   13.0739 C.ar    1  UNL1        0.0067
      8 C          64.8060   91.9437   12.4327 C.ar    1  UNL1        0.0643
      9 C          64.4658   92.0987   10.9801 C.ar    1  UNL1        0.0633
     10 CL         63.4753   91.1724   10.3388 Cl      1  UNL1       -0.0821
     11 C          65.1159   93.1798   10.1687 C.ar    1  UNL1        0.0299
     12 C          67.4065   96.2684    9.1870 C.3     1  UNL1        0.1816
     13 S          66.7564   95.1872    9.9984 S.O2    1  UNL1        0.0105
     14 O          65.5356   96.0435   10.1613 O.2     1  UNL1       -0.1686
     15 O          67.9771   94.3309    9.8355 O.2     1  UNL1       -0.1686
     16 C          64.2676   89.1123   15.1609 C.ar    1  UNL1        0.0506
     17 C          63.6268   89.4441   16.4759 C.ar    1  UNL1        0.0155
     18 C          62.9767   88.3629   17.2874 C.ar    1  UNL1        0.0127
     19 C          62.9674   86.9499   16.7837 C.ar    1  UNL1        0.0592
     20 CL         62.3172   85.8688   17.5952 Cl      1  UNL1       -0.0822
     21 C          63.6082   86.6182   15.4687 C.ar    1  UNL1        0.0295
     22 C          64.2583   87.6994   14.6573 C.ar    1  UNL1        0.0170
     23 C          63.5989   85.2054   14.9651 C.ar    1  UNL1        0.0822
     24 C          64.8410   84.6140   14.3674 C.ar    1  UNL1        0.0192
     25 C          64.8317   83.2010   13.8638 C.ar    1  UNL1        0.0031
     26 C          63.5802   82.3795   13.9580 C.ar    1  UNL1        0.0207
     27 C          62.3380   82.9709   14.5557 C.ar    1  UNL1        0.0988
     28 N          62.3473   84.3838   15.0593 N.ar    1  UNL1       -0.2438
@<TRIPOS>BOND
     1    12    13    1
     2    13    14    2
     3    13    15    2
     4    13     5    1
     5     5     6   ar
     6     6     7   ar
     7     7     8   ar
     8     8     1    1
     9     1     2    2
    10     1     3   am
    11     3    16    1
    12    16    17   ar
    13    17    18   ar
    14    18    19   ar
    15    19    20    1
    16    19    21   ar
    17    21    23    1
    18    23    24   ar
    19    24    25   ar
    20    25    26   ar
    21    26    27   ar
    22    27    28   ar
    23    21    22   ar
    24     8     9   ar
    25     9    10    1
    26     9    11   ar
    27    11     5   ar
    28    22    16   ar
    29    28    23   ar
    30     3     4    1
@<TRIPOS>MOLECULE
*****
 28 30 0 0 0
SMALL
GASTEIGER

@<TRIPOS>ATOM
      1 C          63.9694   89.9195   13.2722 C.2     1  UNL1        0.2503
      2 O          62.5575   89.5356   12.9417 O.2     1  UNL1       -0.2698
      3 N          64.7887   89.0531   14.1820 N.am    1  UNL1       -0.2804
      4 H          65.7154   89.3050   14.3990 H       1  UNL1        0.1552
      5 C          65.7468   93.6704   11.5340 C.ar    1  UNL1        0.1066
      6 C          64.8708   92.7940   10.6887 C.ar    1  UNL1        0.0185
      7 C          64.2783   91.5437   11.2681 C.ar    1  UNL1        0.0067
      8 C          64.5618   91.1698   12.6928 C.ar    1  UNL1        0.0643
      9 C          65.4378   92.0462   13.5380 C.ar    1  UNL1        0.0633
     10 CL         65.7214   91.6722   14.9628 Cl      1  UNL1       -0.0821
     11 C          66.0303   93.2965   12.9586 C.ar    1  UNL1        0.0299
     12 C          66.9317   96.1710   10.3752 C.3     1  UNL1        0.1816
     13 S          66.3392   94.9207   10.9546 S.O2    1  UNL1        0.0105
     14 O          66.0760   95.6425   12.2429 O.2     1  UNL1       -0.1686
     15 O          66.6024   94.1990    9.6662 O.2     1  UNL1       -0.1686
     16 C          64.1963   87.8028   14.7614 C.ar    1  UNL1        0.0506
     17 C          63.6929   87.7963   16.1745 C.ar    1  UNL1        0.0155
     18 C          63.1004   86.5460   16.7539 C.ar    1  UNL1        0.0127
     19 C          63.0113   85.3021   15.9202 C.ar    1  UNL1        0.0592
     20 CL         62.4189   84.0518   16.4996 Cl      1  UNL1       -0.0822
     21 C          63.5147   85.3086   14.5073 C.ar    1  UNL1        0.0295
     22 C          64.1072   86.5589   13.9279 C.ar    1  UNL1        0.0170
     23 C          63.4256   84.0648   13.6737 C.ar    1  UNL1        0.0822
     24 C          62.8227   84.1232   12.3014 C.ar    1  UNL1        0.0192
     25 C          62.7337   82.8792   11.4678 C.ar    1  UNL1        0.0031
     26 C          63.2474   81.5770   12.0065 C.ar    1  UNL1        0.0207
     27 C          63.8502   81.5186   13.3788 C.ar    1  UNL1        0.0988
     28 N          63.9393   82.7625   14.2124 N.ar    1  UNL1       -0.2438
@<TRIPOS>BOND
     1    12    13    1
     2    13    14    2
     3    13    15    2
     4    13     5    1
     5     5     6   ar
     6     6     7   ar
     7     7     8   ar
     8     8     1    1
     9     1     2    2
    10     1     3   am
    11     3    16    1
    12    16    17   ar
    13    17    18   ar
    14    18    19   ar
    15    19    20    1
    16    19    21   ar
    17    21    23    1
    18    23    24   ar
    19    24    25   ar
    20    25    26   ar
    21    26    27   ar
    22    27    28   ar
    23    21    22   ar
    24     8     9   ar
    25     9    10    1
    26     9    11   ar
    27    11     5   ar
    28    22    16   ar
    29    28    23   ar
    30     3     4    1
@<TRIPOS>MOLECULE
*****
 28 30 0 0 0
SMALL
GASTEIGER

@<TRIPOS>ATOM
      1 C          63.9518   85.5613   14.1636 C.2     1  UNL1        0.2503
      2 O          64.7373   85.5932   15.4410 O.2     1  UNL1       -0.2698
      3 N          63.4116   86.8346   13.5833 N.am    1  UNL1       -0.2804
      4 H          62.8960   86.8137   12.7449 H       1  UNL1        0.1552
      5 C          63.2157   81.6455   12.0720 C.ar    1  UNL1        0.1066
      6 C          64.1518   82.6521   11.4717 C.ar    1  UNL1        0.0185
      7 C          64.3971   83.9574   12.1688 C.ar    1  UNL1        0.0067
      8 C          63.7064   84.2560   13.4664 C.ar    1  UNL1        0.0643
      9 C          62.7704   83.2494   14.0668 C.ar    1  UNL1        0.0633
     10 CL         62.0796   83.5480   15.3644 Cl      1  UNL1       -0.0821
     11 C          62.5250   81.9441   13.3696 C.ar    1  UNL1        0.0299
     12 C          62.7250   79.0349   10.6777 C.3     1  UNL1        0.1816
     13 S          62.9704   80.3402   11.3748 S.O2    1  UNL1        0.0105
     14 O          62.5632   79.7203   12.6787 O.2     1  UNL1       -0.1686
     15 O          63.3775   80.9601   10.0710 O.2     1  UNL1       -0.1686
     16 C          63.6570   88.1399   14.2805 C.ar    1  UNL1        0.0506
     17 C          63.3167   88.2895   15.7338 C.ar    1  UNL1        0.0155
     18 C          63.5620   89.5948   16.4310 C.ar    1  UNL1        0.0127
     19 C          64.1477   90.7505   15.6749 C.ar    1  UNL1        0.0592
     20 CL         64.3930   92.0557   16.3721 Cl      1  UNL1       -0.0822
     21 C          64.4879   90.6008   14.2217 C.ar    1  UNL1        0.0295
     22 C          64.2426   89.2955   13.5245 C.ar    1  UNL1        0.0170
     23 C          65.0736   91.7564   13.4657 C.ar    1  UNL1        0.0822
     24 C          64.7977   91.9104   11.9994 C.ar    1  UNL1        0.0192
     25 C          65.3834   93.0661   11.2434 C.ar    1  UNL1        0.0031
     26 C          66.2449   94.0677   11.9538 C.ar    1  UNL1        0.0207
     27 C          66.5207   93.9136   13.4201 C.ar    1  UNL1        0.0988
     28 N          65.9351   92.7580   14.1761 N.ar    1  UNL1       -0.2438
@<TRIPOS>BOND
     1    12    13    1
     2    13    14    2
     3    13    15    2
     4    13     5    1
     5     5     6   ar
     6     6     7   ar
     7     7     8   ar
     8     8     1    1
     9     1     2    2
    10     1     3   am
    11     3    16    1
    12    16    17   ar
    13    17    18   ar
    14    18    19   ar
    15    19    20    1
    16    19    21   ar
    17    21    23    1
    18    23    24   ar
    19    24    25   ar
    20    25    26   ar
    21    26    27   ar
    22    27    28   ar
    23    21    22   ar
    24     8     9   ar
    25     9    10    1
    26     9    11   ar
    27    11     5   ar
    28    22    16   ar
    29    28    23   ar
    30     3     4    1
@<TRIPOS>MOLECULE
*****
 28 30 0 0 0
SMALL
GASTEIGER

@<TRIPOS>ATOM
      1 C          63.6675   90.8125   11.9101 C.2     1  UNL1        0.2503
      2 O          63.1598   91.5818   10.7267 O.2     1  UNL1       -0.2698
      3 N          63.0848   89.4698   12.2378 N.am    1  UNL1       -0.2804
      4 H          63.4180   88.9649   13.0145 H       1  UNL1        0.1552
      5 C          66.9386   92.5330   14.4772 C.ar    1  UNL1        0.1066
      6 C          65.9624   91.5554   15.0614 C.ar    1  UNL1        0.0185
      7 C          64.8721   90.9819   14.2057 C.ar    1  UNL1        0.0067
      8 C          64.7579   91.3860   12.7658 C.ar    1  UNL1        0.0643
      9 C          65.7340   92.3636   12.1815 C.ar    1  UNL1        0.0633
     10 CL         65.6198   92.7678   10.7414 Cl      1  UNL1       -0.0821
     11 C          66.8243   92.9371   13.0372 C.ar    1  UNL1        0.0299
     12 C          69.1193   93.6800   16.1886 C.3     1  UNL1        0.1816
     13 S          68.0289   93.1065   15.3329 S.O2    1  UNL1        0.0105
     14 O          69.0345   92.7842   14.2675 O.2     1  UNL1       -0.1686
     15 O          67.0234   93.4288   16.3982 O.2     1  UNL1       -0.1686
     16 C          61.9944   88.8963   11.3821 C.ar    1  UNL1        0.0506
     17 C          60.5765   89.3475   11.5718 C.ar    1  UNL1        0.0155
     18 C          59.4861   88.7740   10.7161 C.ar    1  UNL1        0.0127
     19 C          59.8137   87.7493    9.6707 C.ar    1  UNL1        0.0592
     20 CL         58.7233   87.1758    8.8150 Cl      1  UNL1       -0.0822
     21 C          61.2316   87.2982    9.4810 C.ar    1  UNL1        0.0295
     22 C          62.3220   87.8717   10.3367 C.ar    1  UNL1        0.0170
     23 C          61.5591   86.2736    8.4356 C.ar    1  UNL1        0.0822
     24 C          60.5275   85.8827    7.4193 C.ar    1  UNL1        0.0192
     25 C          60.8551   84.8581    6.3739 C.ar    1  UNL1        0.0031
     26 C          62.2143   84.2243    6.3448 C.ar    1  UNL1        0.0207
     27 C          63.2459   84.6152    7.3611 C.ar    1  UNL1        0.0988
     28 N          62.9184   85.6398    8.4065 N.ar    1  UNL1       -0.2438
@<TRIPOS>BOND
     1    12    13    1
     2    13    14    2
     3    13    15    2
     4    13     5    1
     5     5     6   ar
     6     6     7   ar
     7     7     8   ar
     8     8     1    1
     9     1     2    2
    10     1     3   am
    11     3    16    1
    12    16    17   ar
    13    17    18   ar
    14    18    19   ar
    15    19    20    1
    16    19    21   ar
    17    21    23    1
    18    23    24   ar
    19    24    25   ar
    20    25    26   ar
    21    26    27   ar
    22    27    28   ar
    23    21    22   ar
    24     8     9   ar
    25     9    10    1
    26     9    11   ar
    27    11     5   ar
    28    22    16   ar
    29    28    23   ar
    30     3     4    1
@<TRIPOS>MOLECULE
*****
 28 30 0 0 0
SMALL
GASTEIGER

@<TRIPOS>ATOM
      1 C          63.5027   86.3607   13.2340 C.2     1  UNL1        0.2503
      2 O          64.5881   86.8960   14.1201 O.2     1  UNL1       -0.2698
      3 N          62.8415   87.2594   12.2315 N.am    1  UNL1       -0.2804
      4 H          62.1291   86.9081   11.6499 H       1  UNL1        0.1552
      5 C          62.2299   82.0586   13.5834 C.ar    1  UNL1        0.1066
      6 C          62.5143   82.6494   12.2343 C.ar    1  UNL1        0.0185
      7 C          62.9385   84.0835   12.1179 C.ar    1  UNL1        0.0067
      8 C          63.0784   84.9267   13.3505 C.ar    1  UNL1        0.0643
      9 C          62.7940   84.3358   14.6995 C.ar    1  UNL1        0.0633
     10 CL         62.9339   85.1791   15.9323 Cl      1  UNL1       -0.0821
     11 C          62.3697   82.9018   14.8160 C.ar    1  UNL1        0.0299
     12 C          61.3813   79.1906   13.8162 C.3     1  UNL1        0.1816
     13 S          61.8056   80.6246   13.6998 S.O2    1  UNL1        0.0105
     14 O          63.0232   80.2020   12.9323 O.2     1  UNL1       -0.1686
     15 O          60.5880   81.0471   14.4673 O.2     1  UNL1       -0.1686
     16 C          63.2658   88.6935   12.1151 C.ar    1  UNL1        0.0506
     17 C          62.8544   89.5027   10.9209 C.ar    1  UNL1        0.0155
     18 C          63.2787   90.9367   10.8045 C.ar    1  UNL1        0.0127
     19 C          64.1143   91.5615   11.8822 C.ar    1  UNL1        0.0592
     20 CL         64.5385   92.9955   11.7658 Cl      1  UNL1       -0.0822
     21 C          64.5256   90.7523   13.0763 C.ar    1  UNL1        0.0295
     22 C          64.1013   89.3183   13.1928 C.ar    1  UNL1        0.0170
     23 C          65.3611   91.3771   14.1540 C.ar    1  UNL1        0.0822
     24 C          66.8488   91.4734   13.9886 C.ar    1  UNL1        0.0192
     25 C          67.6844   92.0983   15.0663 C.ar    1  UNL1        0.0031
     26 C          67.0322   92.6267   16.3094 C.ar    1  UNL1        0.0207
     27 C          65.5445   92.5304   16.4749 C.ar    1  UNL1        0.0988
     28 N          64.7089   91.9056   15.3972 N.ar    1  UNL1       -0.2438
@<TRIPOS>BOND
     1    12    13    1
     2    13    14    2
     3    13    15    2
     4    13     5    1
     5     5     6   ar
     6     6     7   ar
     7     7     8   ar
     8     8     1    1
     9     1     2    2
    10     1     3   am
    11     3    16    1
    12    16    17   ar
    13    17    18   ar
    14    18    19   ar
    15    19    20    1
    16    19    21   ar
    17    21    23    1
    18    23    24   ar
    19    24    25   ar
    20    25    26   ar
    21    26    27   ar
    22    27    28   ar
    23    21    22   ar
    24     8     9   ar
    25     9    10    1
    26     9    11   ar
    27    11     5   ar
    28    22    16   ar
    29    28    23   ar
    30     3     4    1
@<TRIPOS>MOLECULE
*****
 28 30 0 0 0
SMALL
GASTEIGER

@<TRIPOS>ATOM
      1 C          63.8431   89.2594   13.0838 C.2     1  UNL1        0.2503
      2 O          62.6566   88.6883   12.3654 O.2     1  UNL1       -0.2698
      3 N          64.4903   88.4870   14.1948 N.am    1  UNL1       -0.2804
      4 H          65.2690   88.8618   14.6663 H       1  UNL1        0.1552
      5 C          65.4608   93.2900   11.9059 C.ar    1  UNL1        0.1066
      6 C          65.8064   92.7047   13.2430 C.ar    1  UNL1        0.0185
      7 C          65.2672   91.3612   13.6356 C.ar    1  UNL1        0.0067
      8 C          64.3823   90.6029   12.6912 C.ar    1  UNL1        0.0643
      9 C          64.0368   91.1882   11.3540 C.ar    1  UNL1        0.0633
     10 CL         63.1519   90.4300   10.4094 Cl      1  UNL1       -0.0821
     11 C          64.5760   92.5317   10.9614 C.ar    1  UNL1        0.0299
     12 C          66.5393   95.9770   11.1206 C.3     1  UNL1        0.1816
     13 S          66.0001   94.6335   11.5132 S.O2    1  UNL1        0.0105
     14 O          65.6737   94.3450   10.0779 O.2     1  UNL1       -0.1686
     15 O          66.3264   94.9220   12.9486 O.2     1  UNL1       -0.1686
     16 C          63.9511   87.1435   14.5875 C.ar    1  UNL1        0.0506
     17 C          63.4580   86.9125   15.9852 C.ar    1  UNL1        0.0155
     18 C          62.9187   85.5690   16.3779 C.ar    1  UNL1        0.0127
     19 C          62.8726   84.4564   15.3728 C.ar    1  UNL1        0.0592
     20 CL         62.3333   83.1129   15.7654 Cl      1  UNL1       -0.0822
     21 C          63.3656   84.6874   13.9751 C.ar    1  UNL1        0.0295
     22 C          63.9049   86.0309   13.5825 C.ar    1  UNL1        0.0170
     23 C          63.3194   83.5749   12.9701 C.ar    1  UNL1        0.0822
     24 C          63.9661   83.7493   11.6279 C.ar    1  UNL1        0.0192
     25 C          63.9199   82.6367   10.6229 C.ar    1  UNL1        0.0031
     26 C          63.2271   81.3497   10.9601 C.ar    1  UNL1        0.0207
     27 C          62.5804   81.1753   12.3022 C.ar    1  UNL1        0.0988
     28 N          62.6266   82.2878   13.3072 N.ar    1  UNL1       -0.2438
@<TRIPOS>BOND
     1    12    13    1
     2    13    14    2
     3    13    15    2
     4    13     5    1
     5     5     6   ar
     6     6     7   ar
     7     7     8   ar
     8     8     1    1
     9     1     2    2
    10     1     3   am
    11     3    16    1
    12    16    17   ar
    13    17    18   ar
    14    18    19   ar
    15    19    20    1
    16    19    21   ar
    17    21    23    1
    18    23    24   ar
    19    24    25   ar
    20    25    26   ar
    21    26    27   ar
    22    27    28   ar
    23    21    22   ar
    24     8     9   ar
    25     9    10    1
    26     9    11   ar
    27    11     5   ar
    28    22    16   ar
    29    28    23   ar
    30     3     4    1
