@<TRIPOS>MOLECULE
*****
 26 28 0 0 0
SMALL
GASTEIGER

@<TRIPOS>ATOM
      1 C          63.7858   81.4456   13.2314 C.3     1  UNL1        0.0375
      2 C          63.2940   82.7779   12.7486 C.ar    1  UNL1        0.0503
      3 C          63.4003   83.1351   11.2956 C.ar    1  UNL1       -0.0167
      4 C          63.9984   82.1599   10.3254 C.3     1  UNL1        0.0310
      5 C          62.9085   84.4674   10.8128 C.ar    1  UNL1        0.0308
      6 C          63.0148   84.8245    9.3599 C.ar    1  UNL1        0.0058
      7 C          62.5230   86.1568    8.8771 C.ar    1  UNL1        0.0371
      8 C          61.9249   87.1320    9.8473 C.ar    1  UNL1        0.1416
      9 C          61.8186   86.7749   11.3003 C.ar    1  UNL1        0.0744
     10 C          62.3104   85.4426   11.7830 C.ar    1  UNL1        0.1514
     11 O          62.2041   85.0854   13.2361 O.2     1  UNL1       -0.4212
     12 C          62.6959   83.7531   13.7188 C.ar    1  UNL1        0.3414
     13 O          62.5896   83.3959   15.1718 O.2     1  UNL1       -0.2448
     14 O          61.4330   88.4643    9.3645 O.3     1  UNL1       -0.4754
     15 C          61.2012   89.5776   10.3427 C.3     1  UNL1        0.2054
     16 C          62.3687   90.2967   10.9511 C.3     1  UNL1        0.0465
     17 C          62.7371   90.0505   12.3842 C.3     1  UNL1        0.0211
     18 C          63.9045   90.7695   12.9925 C.3     1  UNL1        0.0722
     19 N          64.7035   91.7347   12.1679 N.3     1  UNL1       -0.2726
     20 C          64.3351   91.9808   10.7349 C.3     1  UNL1        0.0722
     21 C          63.1677   91.2618   10.1265 C.3     1  UNL1        0.0211
     22 C          65.8709   92.4537   12.7764 C.3     1  UNL1        0.0747
     23 C          66.5322   91.9045   14.0056 C.3     1  UNL1        0.0490
     24 C          68.0191   92.0139   14.1697 C.3     1  UNL1        0.1386
     25 O          68.9279   91.6512   13.0327 O.3     1  UNL1       -0.3819
     26 H          68.8543   90.7014   12.8503 H       1  UNL1        0.2104
@<TRIPOS>BOND
     1     1     2    1
     2     2     3   ar
     3     3     4    1
     4     3     5   ar
     5     5     6   ar
     6     6     7   ar
     7     7     8   ar
     8     8    14    1
     9    14    15    1
    10    15    16    1
    11    16    17    1
    12    17    18    1
    13    18    19    1
    14    19    22    1
    15    22    23    1
    16    23    24    1
    17    24    25    1
    18    19    20    1
    19    20    21    1
    20     8     9   ar
    21     9    10   ar
    22    10    11   ar
    23    11    12   ar
    24    12    13    2
    25    12     2   ar
    26    10     5   ar
    27    21    16    1
    28    25    26    1
@<TRIPOS>MOLECULE
*****
 26 28 0 0 0
SMALL
GASTEIGER

@<TRIPOS>ATOM
      1 C          66.8832   93.3413   14.1544 C.3     1  UNL1        0.0375
      2 C          65.9399   92.7688   13.1381 C.ar    1  UNL1        0.0503
      3 C          65.0061   91.6598   13.5226 C.ar    1  UNL1       -0.0167
      4 C          65.0154   91.1231   14.9233 C.3     1  UNL1        0.0310
      5 C          64.0628   91.0874   12.5064 C.ar    1  UNL1        0.0308
      6 C          63.1289   89.9783   12.8908 C.ar    1  UNL1        0.0058
      7 C          62.1857   89.4060   11.8746 C.ar    1  UNL1        0.0371
      8 C          62.1763   89.9427   10.4740 C.ar    1  UNL1        0.1416
      9 C          63.1102   91.0518   10.0895 C.ar    1  UNL1        0.0744
     10 C          64.0534   91.6241   11.1057 C.ar    1  UNL1        0.1514
     11 O          64.9873   92.7332   10.7213 O.2     1  UNL1       -0.4212
     12 C          65.9305   93.3056   11.7375 C.ar    1  UNL1        0.3414
     13 O          66.8644   94.4147   11.3530 O.2     1  UNL1       -0.2448
     14 O          61.2330   89.3703    9.4578 O.3     1  UNL1       -0.4754
     15 C          60.5984   88.0318    9.6937 C.3     1  UNL1        0.2054
     16 C          61.4551   86.8062    9.8132 C.3     1  UNL1        0.0465
     17 C          62.2465   86.3263    8.6328 C.3     1  UNL1        0.0211
     18 C          63.1030   85.1007    8.7524 C.3     1  UNL1        0.0722
     19 N          63.1682   84.3552   10.0524 N.3     1  UNL1       -0.2726
     20 C          62.3768   84.8351   11.2327 C.3     1  UNL1        0.0722
     21 C          61.5202   86.0606   11.1132 C.3     1  UNL1        0.0211
     22 C          64.0248   83.1296   10.1719 C.3     1  UNL1        0.0747
     23 C          63.7141   82.0961   11.2137 C.3     1  UNL1        0.0490
     24 C          64.2896   82.2248   12.5928 C.3     1  UNL1        0.1386
     25 O          65.0259   83.4715   12.9850 O.3     1  UNL1       -0.3819
     26 H          65.8396   83.5445   12.4621 H       1  UNL1        0.2104
@<TRIPOS>BOND
     1     1     2    1
     2     2     3   ar
     3     3     4    1
     4     3     5   ar
     5     5     6   ar
     6     6     7   ar
     7     7     8   ar
     8     8    14    1
     9    14    15    1
    10    15    16    1
    11    16    17    1
    12    17    18    1
    13    18    19    1
    14    19    22    1
    15    22    23    1
    16    23    24    1
    17    24    25    1
    18    19    20    1
    19    20    21    1
    20     8     9   ar
    21     9    10   ar
    22    10    11   ar
    23    11    12   ar
    24    12    13    2
    25    12     2   ar
    26    10     5   ar
    27    21    16    1
    28    25    26    1
@<TRIPOS>MOLECULE
*****
 26 28 0 0 0
SMALL
GASTEIGER

@<TRIPOS>ATOM
      1 C          60.3293   87.4575    7.8326 C.3     1  UNL1        0.0375
      2 C          60.9696   86.7594    8.9957 C.ar    1  UNL1        0.0503
      3 C          61.9557   85.6546    8.7570 C.ar    1  UNL1       -0.0167
      4 C          62.3015   85.2478    7.3552 C.3     1  UNL1        0.0310
      5 C          62.5960   84.9565    9.9201 C.ar    1  UNL1        0.0308
      6 C          63.5821   83.8516    9.6814 C.ar    1  UNL1        0.0058
      7 C          64.2223   83.1536   10.8445 C.ar    1  UNL1        0.0371
      8 C          63.8765   83.5604   12.2462 C.ar    1  UNL1        0.1416
      9 C          62.8904   84.6652   12.4849 C.ar    1  UNL1        0.0744
     10 C          62.2502   85.3632   11.3219 C.ar    1  UNL1        0.1514
     11 O          61.2640   86.4681   11.5605 O.2     1  UNL1       -0.4212
     12 C          60.6238   87.1661   10.3974 C.ar    1  UNL1        0.3414
     13 O          59.6377   88.2710   10.6361 O.2     1  UNL1       -0.2448
     14 O          64.5168   82.8623   13.4093 O.3     1  UNL1       -0.4754
     15 C          63.9753   83.0609   14.7940 C.3     1  UNL1        0.2054
     16 C          63.7678   84.4479   15.3263 C.3     1  UNL1        0.0465
     17 C          62.6610   84.7192   16.3016 C.3     1  UNL1        0.0211
     18 C          62.4536   86.1061   16.8339 C.3     1  UNL1        0.0722
     19 N          63.3531   87.2217   16.3910 N.3     1  UNL1       -0.2726
     20 C          64.4600   86.9505   15.4157 C.3     1  UNL1        0.0722
     21 C          64.6673   85.5636   14.8834 C.3     1  UNL1        0.0211
     22 C          63.1457   88.6087   16.9234 C.3     1  UNL1        0.0747
     23 C          62.9541   89.7551   15.9753 C.3     1  UNL1        0.0490
     24 C          63.8907   90.9260   16.0153 C.3     1  UNL1        0.1386
     25 O          63.5117   92.1641   16.7727 O.3     1  UNL1       -0.3819
     26 H          62.7472   92.5824   16.3468 H       1  UNL1        0.2104
@<TRIPOS>BOND
     1     1     2    1
     2     2     3   ar
     3     3     4    1
     4     3     5   ar
     5     5     6   ar
     6     6     7   ar
     7     7     8   ar
     8     8    14    1
     9    14    15    1
    10    15    16    1
    11    16    17    1
    12    17    18    1
    13    18    19    1
    14    19    22    1
    15    22    23    1
    16    23    24    1
    17    24    25    1
    18    19    20    1
    19    20    21    1
    20     8     9   ar
    21     9    10   ar
    22    10    11   ar
    23    11    12   ar
    24    12    13    2
    25    12     2   ar
    26    10     5   ar
    27    21    16    1
    28    25    26    1
@<TRIPOS>MOLECULE
*****
 26 28 0 0 0
SMALL
GASTEIGER

@<TRIPOS>ATOM
      1 C          60.2984   86.0397    7.9231 C.3     1  UNL1        0.0375
      2 C          60.7613   87.0734    8.9065 C.ar    1  UNL1        0.0503
      3 C          61.7096   86.6925   10.0045 C.ar    1  UNL1       -0.0167
      4 C          62.1950   85.2778   10.1191 C.3     1  UNL1        0.0310
      5 C          62.1726   87.7262   10.9879 C.ar    1  UNL1        0.0308
      6 C          63.1209   87.3453   12.0859 C.ar    1  UNL1        0.0058
      7 C          63.5838   88.3790   13.0693 C.ar    1  UNL1        0.0371
      8 C          63.0985   89.7937   12.9546 C.ar    1  UNL1        0.1416
      9 C          62.1502   90.1746   11.8567 C.ar    1  UNL1        0.0744
     10 C          61.6873   89.1409   10.8733 C.ar    1  UNL1        0.1514
     11 O          60.7389   89.5218    9.7752 O.2     1  UNL1       -0.4212
     12 C          60.2760   88.4881    8.7919 C.ar    1  UNL1        0.3414
     13 O          59.3277   88.8690    7.6938 O.2     1  UNL1       -0.2448
     14 O          63.5614   90.8275   13.9381 O.3     1  UNL1       -0.4754
     15 C          64.9739   91.3298   13.8890 C.3     1  UNL1        0.2054
     16 C          65.3752   92.3403   12.8556 C.3     1  UNL1        0.0465
     17 C          65.0078   92.1281   11.4168 C.3     1  UNL1        0.0211
     18 C          65.4090   93.1385   10.3835 C.3     1  UNL1        0.0722
     19 N          66.1776   94.3612   10.7888 N.3     1  UNL1       -0.2726
     20 C          66.5451   94.5734   12.2275 C.3     1  UNL1        0.0722
     21 C          66.1438   93.5629   13.2609 C.3     1  UNL1        0.0211
     22 C          66.5789   95.3717    9.7553 C.3     1  UNL1        0.0747
     23 C          67.5941   95.0136    8.7108 C.3     1  UNL1        0.0490
     24 C          68.2324   93.6562    8.7195 C.3     1  UNL1        0.1386
     25 O          69.1604   93.2709    9.8332 O.3     1  UNL1       -0.3819
     26 H          69.9563   93.8243    9.7970 H       1  UNL1        0.2104
@<TRIPOS>BOND
     1     1     2    1
     2     2     3   ar
     3     3     4    1
     4     3     5   ar
     5     5     6   ar
     6     6     7   ar
     7     7     8   ar
     8     8    14    1
     9    14    15    1
    10    15    16    1
    11    16    17    1
    12    17    18    1
    13    18    19    1
    14    19    22    1
    15    22    23    1
    16    23    24    1
    17    24    25    1
    18    19    20    1
    19    20    21    1
    20     8     9   ar
    21     9    10   ar
    22    10    11   ar
    23    11    12   ar
    24    12    13    2
    25    12     2   ar
    26    10     5   ar
    27    21    16    1
    28    25    26    1
@<TRIPOS>MOLECULE
*****
 26 28 0 0 0
SMALL
GASTEIGER

@<TRIPOS>ATOM
      1 C          60.6040   85.2757    6.8595 C.3     1  UNL1        0.0375
      2 C          61.1169   86.0605    8.0304 C.ar    1  UNL1        0.0503
      3 C          60.3797   87.2809    8.4962 C.ar    1  UNL1       -0.0167
      4 C          59.1295   87.7166    7.7911 C.3     1  UNL1        0.0310
      5 C          60.8926   88.0658    9.6671 C.ar    1  UNL1        0.0308
      6 C          60.1554   89.2862   10.1329 C.ar    1  UNL1        0.0058
      7 C          60.6683   90.0709   11.3037 C.ar    1  UNL1        0.0371
      8 C          61.9185   89.6353   12.0088 C.ar    1  UNL1        0.1416
      9 C          62.6558   88.4149   11.5431 C.ar    1  UNL1        0.0744
     10 C          62.1428   87.6301   10.3722 C.ar    1  UNL1        0.1514
     11 O          62.8801   86.4096    9.9064 O.2     1  UNL1       -0.4212
     12 C          62.3671   85.6248    8.7355 C.ar    1  UNL1        0.3414
     13 O          63.1044   84.4043    8.2697 O.2     1  UNL1       -0.2448
     14 O          62.4314   90.4201   13.1798 O.3     1  UNL1       -0.4754
     15 C          63.9085   90.5807   13.3859 C.3     1  UNL1        0.2054
     16 C          64.6601   91.6390   12.6341 C.3     1  UNL1        0.0465
     17 C          64.4074   91.8409   11.1694 C.3     1  UNL1        0.0211
     18 C          65.1590   92.8991   10.4176 C.3     1  UNL1        0.0722
     19 N          66.1632   93.7554   11.1306 N.3     1  UNL1       -0.2726
     20 C          66.4159   93.5535   12.5952 C.3     1  UNL1        0.0722
     21 C          65.6643   92.4952   13.3470 C.3     1  UNL1        0.0211
     22 C          66.9148   94.8137   10.3787 C.3     1  UNL1        0.0747
     23 C          67.6258   94.4665    9.1044 C.3     1  UNL1        0.0490
     24 C          68.4948   93.2457    9.0391 C.3     1  UNL1        0.1386
     25 O          69.0199   92.6304   10.3023 O.3     1  UNL1       -0.3819
     26 H          69.6360   93.2456   10.7298 H       1  UNL1        0.2104
@<TRIPOS>BOND
     1     1     2    1
     2     2     3   ar
     3     3     4    1
     4     3     5   ar
     5     5     6   ar
     6     6     7   ar
     7     7     8   ar
     8     8    14    1
     9    14    15    1
    10    15    16    1
    11    16    17    1
    12    17    18    1
    13    18    19    1
    14    19    22    1
    15    22    23    1
    16    23    24    1
    17    24    25    1
    18    19    20    1
    19    20    21    1
    20     8     9   ar
    21     9    10   ar
    22    10    11   ar
    23    11    12   ar
    24    12    13    2
    25    12     2   ar
    26    10     5   ar
    27    21    16    1
    28    25    26    1
@<TRIPOS>MOLECULE
*****
 26 28 0 0 0
SMALL
GASTEIGER

@<TRIPOS>ATOM
      1 C          62.7733   80.5916   11.5686 C.3     1  UNL1        0.0375
      2 C          63.1514   81.9030   12.1911 C.ar    1  UNL1        0.0503
      3 C          62.5886   82.2891   13.5268 C.ar    1  UNL1       -0.0167
      4 C          61.6478   81.3639   14.2401 C.3     1  UNL1        0.0310
      5 C          62.9667   83.6005   14.1492 C.ar    1  UNL1        0.0308
      6 C          62.4040   83.9867   15.4850 C.ar    1  UNL1        0.0058
      7 C          62.7820   85.2980   16.1073 C.ar    1  UNL1        0.0371
      8 C          63.7229   86.2232   15.3940 C.ar    1  UNL1        0.1416
      9 C          64.2856   85.8371   14.0583 C.ar    1  UNL1        0.0744
     10 C          63.9075   84.5257   13.4359 C.ar    1  UNL1        0.1514
     11 O          64.4703   84.1395   12.1001 O.2     1  UNL1       -0.4212
     12 C          64.0922   82.8282   11.4777 C.ar    1  UNL1        0.3414
     13 O          64.6549   82.4420   10.1419 O.2     1  UNL1       -0.2448
     14 O          64.1009   87.5346   16.0164 O.3     1  UNL1       -0.4754
     15 C          63.3318   88.7763   15.6749 C.3     1  UNL1        0.2054
     16 C          63.8293   89.6943   14.5979 C.3     1  UNL1        0.0465
     17 C          63.0788   89.8089   13.3043 C.3     1  UNL1        0.0211
     18 C          63.5763   90.7268   12.2274 C.3     1  UNL1        0.0722
     19 N          64.8243   91.5302   12.4441 N.3     1  UNL1       -0.2726
     20 C          65.5749   91.4157   13.7378 C.3     1  UNL1        0.0722
     21 C          65.0773   90.4977   14.8147 C.3     1  UNL1        0.0211
     22 C          65.3218   92.4482   11.3671 C.3     1  UNL1        0.0747
     23 C          66.7669   92.8487   11.3314 C.3     1  UNL1        0.0490
     24 C          67.5054   92.8764   10.0261 C.3     1  UNL1        0.1386
     25 O          69.0054   92.8728   10.0128 O.3     1  UNL1       -0.3819
     26 H          69.3342   93.6978   10.4029 H       1  UNL1        0.2104
@<TRIPOS>BOND
     1     1     2    1
     2     2     3   ar
     3     3     4    1
     4     3     5   ar
     5     5     6   ar
     6     6     7   ar
     7     7     8   ar
     8     8    14    1
     9    14    15    1
    10    15    16    1
    11    16    17    1
    12    17    18    1
    13    18    19    1
    14    19    22    1
    15    22    23    1
    16    23    24    1
    17    24    25    1
    18    19    20    1
    19    20    21    1
    20     8     9   ar
    21     9    10   ar
    22    10    11   ar
    23    11    12   ar
    24    12    13    2
    25    12     2   ar
    26    10     5   ar
    27    21    16    1
    28    25    26    1
@<TRIPOS>MOLECULE
*****
 26 28 0 0 0
SMALL
GASTEIGER

@<TRIPOS>ATOM
      1 C          62.8643   80.4491   11.5777 C.3     1  UNL1        0.0375
      2 C          63.1745   81.7577   12.2421 C.ar    1  UNL1        0.0503
      3 C          62.5366   82.1019   13.5553 C.ar    1  UNL1       -0.0167
      4 C          61.5885   81.1375   14.2042 C.3     1  UNL1        0.0310
      5 C          62.8468   83.4106   14.2197 C.ar    1  UNL1        0.0308
      6 C          62.2088   83.7548   15.5329 C.ar    1  UNL1        0.0058
      7 C          62.5190   85.0633   16.1972 C.ar    1  UNL1        0.0371
      8 C          63.4671   86.0277   15.5483 C.ar    1  UNL1        0.1416
      9 C          64.1051   85.6835   14.2351 C.ar    1  UNL1        0.0744
     10 C          63.7949   84.3749   13.5708 C.ar    1  UNL1        0.1514
     11 O          64.4328   84.0307   12.2575 O.2     1  UNL1       -0.4212
     12 C          64.1226   82.7221   11.5932 C.ar    1  UNL1        0.3414
     13 O          64.7605   82.3778   10.2800 O.2     1  UNL1       -0.2448
     14 O          63.7773   87.3364   16.2127 O.3     1  UNL1       -0.4754
     15 C          63.0885   88.5894   15.7596 C.3     1  UNL1        0.2054
     16 C          63.8916   89.8203   15.4596 C.3     1  UNL1        0.0465
     17 C          63.9622   90.9328   16.4631 C.3     1  UNL1        0.0211
     18 C          64.7653   92.1636   16.1631 C.3     1  UNL1        0.0722
     19 N          65.4979   92.2819   14.8595 N.3     1  UNL1       -0.2726
     20 C          65.4274   91.1693   13.8560 C.3     1  UNL1        0.0722
     21 C          64.6242   89.9385   14.1560 C.3     1  UNL1        0.0211
     22 C          66.3010   93.5128   14.5595 C.3     1  UNL1        0.0747
     23 C          67.7100   93.6296   15.0607 C.3     1  UNL1        0.0490
     24 C          68.6098   92.4295   15.0553 C.3     1  UNL1        0.1386
     25 O          69.9567   92.5048   14.3993 O.3     1  UNL1       -0.3819
     26 H          69.8445   92.6278   13.4437 H       1  UNL1        0.2104
@<TRIPOS>BOND
     1     1     2    1
     2     2     3   ar
     3     3     4    1
     4     3     5   ar
     5     5     6   ar
     6     6     7   ar
     7     7     8   ar
     8     8    14    1
     9    14    15    1
    10    15    16    1
    11    16    17    1
    12    17    18    1
    13    18    19    1
    14    19    22    1
    15    22    23    1
    16    23    24    1
    17    24    25    1
    18    19    20    1
    19    20    21    1
    20     8     9   ar
    21     9    10   ar
    22    10    11   ar
    23    11    12   ar
    24    12    13    2
    25    12     2   ar
    26    10     5   ar
    27    21    16    1
    28    25    26    1
@<TRIPOS>MOLECULE
*****
 26 28 0 0 0
SMALL
GASTEIGER

@<TRIPOS>ATOM
      1 C          63.5696   81.2003   13.7460 C.3     1  UNL1        0.0375
      2 C          63.4502   82.6429   13.3523 C.ar    1  UNL1        0.0503
      3 C          63.9282   83.7166   14.2843 C.ar    1  UNL1       -0.0167
      4 C          64.5255   83.3479   15.6099 C.3     1  UNL1        0.0310
      5 C          63.8089   85.1592   13.8907 C.ar    1  UNL1        0.0308
      6 C          64.2868   86.2329   14.8226 C.ar    1  UNL1        0.0058
      7 C          64.1675   87.6754   14.4289 C.ar    1  UNL1        0.0371
      8 C          63.5702   88.0441   13.1033 C.ar    1  UNL1        0.1416
      9 C          63.0922   86.9704   12.1714 C.ar    1  UNL1        0.0744
     10 C          63.2116   85.5279   12.5650 C.ar    1  UNL1        0.1514
     11 O          62.7336   84.4541   11.6330 O.2     1  UNL1       -0.4212
     12 C          62.8529   83.0116   12.0267 C.ar    1  UNL1        0.3414
     13 O          62.3750   81.9378   11.0947 O.2     1  UNL1       -0.2448
     14 O          63.4509   89.4867   12.7097 O.3     1  UNL1       -0.4754
     15 C          64.2355   90.5322   13.4453 C.3     1  UNL1        0.2054
     16 C          64.8683   91.6639   12.6911 C.3     1  UNL1        0.0465
     17 C          64.5626   91.8590   11.2356 C.3     1  UNL1        0.0211
     18 C          65.1954   92.9907   10.4815 C.3     1  UNL1        0.0722
     19 N          66.1340   93.9273   11.1828 N.3     1  UNL1       -0.2726
     20 C          66.4397   93.7322   12.6383 C.3     1  UNL1        0.0722
     21 C          65.8069   92.6005   13.3924 C.3     1  UNL1        0.0211
     22 C          66.7669   95.0591   10.4286 C.3     1  UNL1        0.0747
     23 C          67.4790   94.7932    9.1355 C.3     1  UNL1        0.0490
     24 C          68.2476   93.5184    8.9509 C.3     1  UNL1        0.1386
     25 O          68.9859   92.9135   10.1081 O.3     1  UNL1       -0.3819
     26 H          69.7096   93.5024   10.3733 H       1  UNL1        0.2104
@<TRIPOS>BOND
     1     1     2    1
     2     2     3   ar
     3     3     4    1
     4     3     5   ar
     5     5     6   ar
     6     6     7   ar
     7     7     8   ar
     8     8    14    1
     9    14    15    1
    10    15    16    1
    11    16    17    1
    12    17    18    1
    13    18    19    1
    14    19    22    1
    15    22    23    1
    16    23    24    1
    17    24    25    1
    18    19    20    1
    19    20    21    1
    20     8     9   ar
    21     9    10   ar
    22    10    11   ar
    23    11    12   ar
    24    12    13    2
    25    12     2   ar
    26    10     5   ar
    27    21    16    1
    28    25    26    1
@<TRIPOS>MOLECULE
*****
 26 28 0 0 0
SMALL
GASTEIGER

@<TRIPOS>ATOM
      1 C          63.8822   80.7412   13.8168 C.3     1  UNL1        0.0375
      2 C          63.5087   81.9660   13.0354 C.ar    1  UNL1        0.0503
      3 C          63.7019   83.3267   13.6362 C.ar    1  UNL1       -0.0167
      4 C          64.2685   83.4628   15.0183 C.3     1  UNL1        0.0310
      5 C          63.3284   84.5515   12.8548 C.ar    1  UNL1        0.0308
      6 C          63.5216   85.9123   13.4555 C.ar    1  UNL1        0.0058
      7 C          63.1481   87.1369   12.6741 C.ar    1  UNL1        0.0371
      8 C          62.5814   87.0008   11.2919 C.ar    1  UNL1        0.1416
      9 C          62.3883   85.6401   10.6912 C.ar    1  UNL1        0.0744
     10 C          62.7618   84.4154   11.4726 C.ar    1  UNL1        0.1514
     11 O          62.5686   83.0546   10.8718 O.2     1  UNL1       -0.4212
     12 C          62.9421   81.8299   11.6532 C.ar    1  UNL1        0.3414
     13 O          62.7490   80.4690   11.0525 O.2     1  UNL1       -0.2448
     14 O          62.2079   88.2256   10.5105 O.3     1  UNL1       -0.4754
     15 C          61.9140   89.5109   11.2258 C.3     1  UNL1        0.2054
     16 C          63.0163   90.4953   11.4828 C.3     1  UNL1        0.0465
     17 C          63.5880   90.6377   12.8622 C.3     1  UNL1        0.0211
     18 C          64.6903   91.6220   13.1192 C.3     1  UNL1        0.0722
     19 N          65.2208   92.4639   11.9968 N.3     1  UNL1       -0.2726
     20 C          64.6491   92.3215   10.6174 C.3     1  UNL1        0.0722
     21 C          63.5468   91.3371   10.3604 C.3     1  UNL1        0.0211
     22 C          66.3231   93.4483   12.2539 C.3     1  UNL1        0.0747
     23 C          66.2194   94.8465   11.7209 C.3     1  UNL1        0.0490
     24 C          66.9439   95.2255   10.4634 C.3     1  UNL1        0.1386
     25 O          67.7998   94.2158    9.7576 O.3     1  UNL1       -0.3819
     26 H          68.5572   93.9857   10.3182 H       1  UNL1        0.2104
@<TRIPOS>BOND
     1     1     2    1
     2     2     3   ar
     3     3     4    1
     4     3     5   ar
     5     5     6   ar
     6     6     7   ar
     7     7     8   ar
     8     8    14    1
     9    14    15    1
    10    15    16    1
    11    16    17    1
    12    17    18    1
    13    18    19    1
    14    19    22    1
    15    22    23    1
    16    23    24    1
    17    24    25    1
    18    19    20    1
    19    20    21    1
    20     8     9   ar
    21     9    10   ar
    22    10    11   ar
    23    11    12   ar
    24    12    13    2
    25    12     2   ar
    26    10     5   ar
    27    21    16    1
    28    25    26    1
