@<TRIPOS>MOLECULE
*****
 24 27 0 0 0
SMALL
GASTEIGER

@<TRIPOS>ATOM
      1 C          63.3033   90.5452   11.5676 C.2     1  UNL1        0.3270
      2 N          63.8739   91.5976   10.6639 N.2     1  UNL1       -0.0380
      3 C          64.9206   92.3497   11.4313 C.2     1  UNL1        0.2637
      4 C          65.8141   93.4937   11.0533 C.2     1  UNL1        0.2821
      5 N          66.7839   94.0501   12.0534 N.2     1  UNL1       -0.0268
      6 C          66.8601   93.4625   13.4313 C.2     1  UNL1        0.3760
      7 N          67.7105   93.7988   14.6203 N.2     1  UNL1       -0.0306
      8 C          67.3425   92.8627   15.7330 C.2     1  UNL1        0.2361
      9 C          66.2647   91.9478   15.2318 C.2     1  UNL1        0.0583
     10 C          65.9665   92.3184   13.8093 C.2     1  UNL1        0.1203
     11 C          64.9968   91.7621   12.8092 C.3     1  UNL1        0.2596
     12 N          63.9972   90.6468   12.8935 N.pl3   1  UNL1       -0.1887
     13 C          63.7373   89.7846   14.0930 C.3     1  UNL1        0.1605
     14 C          64.1336   88.3380   14.0770 C.3     1  UNL1        0.0477
     15 C          63.8736   87.4757   15.2766 C.3     1  UNL1        0.0192
     16 C          63.2173   88.0601   16.4922 C.3     1  UNL1        0.0917
     17 C          62.8210   89.5067   16.5083 C.3     1  UNL1        0.0192
     18 C          63.0810   90.3689   15.3087 C.3     1  UNL1        0.0477
     19 C          62.9574   87.1979   17.6917 C.1     1  UNL1        0.0721
     20 N          62.6974   86.3356   18.8914 N.1     1  UNL1       -0.1959
     21 C          62.3895   88.6794   10.0075 C.3     1  UNL1        0.0450
     22 C          62.2276   89.5635   11.2084 C.3     1  UNL1        0.2165
     23 O          60.9899   89.4658   12.0502 O.3     1  UNL1       -0.3737
     24 H          61.0448   90.1015   12.7808 H       1  UNL1        0.2111
@<TRIPOS>BOND
     1    22    21    1
     2    22    23    1
     3    22     1    1
     4     1     2    2
     5     2     3    1
     6     3     4    2
     7     4     5    1
     8     5     6    2
     9     6     7    1
    10     7     8    2
    11     8     9    1
    12     9    10    2
    13    10    11    1
    14    11    12    1
    15    13    12    1
    16    13    14    1
    17    14    15    1
    18    15    16    1
    19    16    19    1
    20    19    20    3
    21    16    17    1
    22    17    18    1
    23    12     1    1
    24    18    13    1
    25    11     3    1
    26    10     6    1
    27    23    24    1
@<TRIPOS>MOLECULE
*****
 24 27 0 0 0
SMALL
GASTEIGER

@<TRIPOS>ATOM
      1 C          63.9515   90.2085   15.1213 C.2     1  UNL1        0.3270
      2 N          64.8897   91.1099   15.8679 N.2     1  UNL1       -0.0380
      3 C          65.5365   92.0301   14.8755 C.2     1  UNL1        0.2637
      4 C          66.5461   93.1279   15.0345 C.2     1  UNL1        0.2821
      5 N          67.0174   93.8932   13.8334 N.2     1  UNL1       -0.0268
      6 C          66.4790   93.5605   12.4735 C.2     1  UNL1        0.3760
      7 N          66.7541   94.1373   11.1165 N.2     1  UNL1       -0.0306
      8 C          65.9145   93.3959   10.1188 C.2     1  UNL1        0.2361
      9 C          65.1204   92.3609   10.8593 C.2     1  UNL1        0.0583
     10 C          65.4693   92.4626   12.3146 C.2     1  UNL1        0.1203
     11 C          64.9981   91.6974   13.5156 C.3     1  UNL1        0.2596
     12 N          64.0185   90.5716   13.6675 N.pl3   1  UNL1       -0.1887
     13 C          63.2422   89.9229   12.5601 C.3     1  UNL1        0.1605
     14 C          62.3875   90.7584   11.6539 C.3     1  UNL1        0.0477
     15 C          61.6112   90.1096   10.5464 C.3     1  UNL1        0.0192
     16 C          61.6897   88.6253   10.3452 C.3     1  UNL1        0.0917
     17 C          62.5445   87.7897   11.2513 C.3     1  UNL1        0.0192
     18 C          63.3207   88.4384   12.3588 C.3     1  UNL1        0.0477
     19 C          60.9134   87.9765    9.2377 C.1     1  UNL1        0.0721
     20 N          60.1371   87.3277    8.1303 N.1     1  UNL1       -0.1959
     21 C          63.6695   87.7684   15.9676 C.3     1  UNL1        0.0450
     22 C          63.0965   89.1329   15.7230 C.3     1  UNL1        0.2165
     23 O          61.6686   89.4218   16.0800 O.3     1  UNL1       -0.3737
     24 H          61.4601   90.3430   15.8591 H       1  UNL1        0.2111
@<TRIPOS>BOND
     1    22    21    1
     2    22    23    1
     3    22     1    1
     4     1     2    2
     5     2     3    1
     6     3     4    2
     7     4     5    1
     8     5     6    2
     9     6     7    1
    10     7     8    2
    11     8     9    1
    12     9    10    2
    13    10    11    1
    14    11    12    1
    15    13    12    1
    16    13    14    1
    17    14    15    1
    18    15    16    1
    19    16    19    1
    20    19    20    3
    21    16    17    1
    22    17    18    1
    23    12     1    1
    24    18    13    1
    25    11     3    1
    26    10     6    1
    27    23    24    1
@<TRIPOS>MOLECULE
*****
 24 27 0 0 0
SMALL
GASTEIGER

@<TRIPOS>ATOM
      1 C          64.0490   86.1558   13.7315 C.2     1  UNL1        0.3270
      2 N          63.9078   87.6489   13.7526 N.2     1  UNL1       -0.0380
      3 C          63.1118   88.0564   12.5482 C.2     1  UNL1        0.2637
      4 C          62.6611   89.3973   12.0497 C.2     1  UNL1        0.2821
      5 N          61.8595   89.4969   10.7857 N.2     1  UNL1       -0.0268
      6 C          61.5088   88.2555   10.0203 C.2     1  UNL1        0.3760
      7 N          60.7368   88.0430    8.7519 N.2     1  UNL1       -0.0306
      8 C          60.7104   86.5706    8.4666 C.2     1  UNL1        0.2361
      9 C          61.4661   85.8732    9.5586 C.2     1  UNL1        0.0583
     10 C          61.9595   86.9145   10.5189 C.2     1  UNL1        0.1203
     11 C          62.7610   86.8150   11.7828 C.3     1  UNL1        0.2596
     12 N          63.3403   85.6403   12.5141 N.pl3   1  UNL1       -0.1887
     13 C          63.2301   84.2027   12.1007 C.3     1  UNL1        0.1605
     14 C          63.8936   83.7317   10.8405 C.3     1  UNL1        0.0477
     15 C          63.7834   82.2940   10.4271 C.3     1  UNL1        0.0192
     16 C          63.0097   81.3273   11.2737 C.3     1  UNL1        0.0917
     17 C          62.3461   81.7983   12.5338 C.3     1  UNL1        0.0192
     18 C          62.4563   83.2359   12.9473 C.3     1  UNL1        0.0477
     19 C          62.8995   79.8897   10.8603 C.1     1  UNL1        0.0721
     20 N          62.7894   78.4519   10.4468 N.1     1  UNL1       -0.1959
     21 C          64.1013   84.9728   16.0440 C.3     1  UNL1        0.0450
     22 C          64.7720   85.3241   14.7491 C.3     1  UNL1        0.2165
     23 O          66.1656   84.8436   14.4718 O.3     1  UNL1       -0.3737
     24 H          66.4476   85.1565   13.5980 H       1  UNL1        0.2111
@<TRIPOS>BOND
     1    22    21    1
     2    22    23    1
     3    22     1    1
     4     1     2    2
     5     2     3    1
     6     3     4    2
     7     4     5    1
     8     5     6    2
     9     6     7    1
    10     7     8    2
    11     8     9    1
    12     9    10    2
    13    10    11    1
    14    11    12    1
    15    13    12    1
    16    13    14    1
    17    14    15    1
    18    15    16    1
    19    16    19    1
    20    19    20    3
    21    16    17    1
    22    17    18    1
    23    12     1    1
    24    18    13    1
    25    11     3    1
    26    10     6    1
    27    23    24    1
@<TRIPOS>MOLECULE
*****
 24 27 0 0 0
SMALL
GASTEIGER

@<TRIPOS>ATOM
      1 C          63.8087   89.1095   13.5202 C.2     1  UNL1        0.3270
      2 N          64.5865   88.4287   14.6073 N.2     1  UNL1       -0.0380
      3 C          64.4402   86.9472   14.4237 C.2     1  UNL1        0.2637
      4 C          64.9853   85.7816   15.1945 C.2     1  UNL1        0.2821
      5 N          64.6624   84.3812   14.7649 N.2     1  UNL1       -0.0268
      6 C          63.7942   84.1464   13.5644 C.2     1  UNL1        0.3760
      7 N          63.3087   82.8883   12.9075 N.2     1  UNL1       -0.0306
      8 C          62.4634   83.2764   11.7307 C.2     1  UNL1        0.2361
      9 C          62.4265   84.7743   11.6603 C.2     1  UNL1        0.0583
     10 C          63.2491   85.3120   12.7936 C.2     1  UNL1        0.1203
     11 C          63.5721   86.7124   13.2232 C.3     1  UNL1        0.2596
     12 N          63.1818   88.0488   12.6648 N.pl3   1  UNL1       -0.1887
     13 C          62.3165   88.2833   11.4623 C.3     1  UNL1        0.1605
     14 C          62.5793   87.5316   10.1911 C.3     1  UNL1        0.0477
     15 C          61.7140   87.7661    8.9885 C.3     1  UNL1        0.0192
     16 C          60.5859   88.7523    9.0571 C.3     1  UNL1        0.0917
     17 C          60.3230   89.5040   10.3282 C.3     1  UNL1        0.0192
     18 C          61.1883   89.2695   11.5308 C.3     1  UNL1        0.0477
     19 C          59.7206   88.9868    7.8545 C.1     1  UNL1        0.0721
     20 N          58.8553   89.2213    6.6518 N.1     1  UNL1       -0.1959
     21 C          64.0106   91.2022   11.9938 C.3     1  UNL1        0.0450
     22 C          63.6805   90.5910   13.3233 C.3     1  UNL1        0.2165
     23 O          63.2221   91.4612   14.4557 O.3     1  UNL1       -0.3737
     24 H          63.0522   90.9122   15.2371 H       1  UNL1        0.2111
@<TRIPOS>BOND
     1    22    21    1
     2    22    23    1
     3    22     1    1
     4     1     2    2
     5     2     3    1
     6     3     4    2
     7     4     5    1
     8     5     6    2
     9     6     7    1
    10     7     8    2
    11     8     9    1
    12     9    10    2
    13    10    11    1
    14    11    12    1
    15    13    12    1
    16    13    14    1
    17    14    15    1
    18    15    16    1
    19    16    19    1
    20    19    20    3
    21    16    17    1
    22    17    18    1
    23    12     1    1
    24    18    13    1
    25    11     3    1
    26    10     6    1
    27    23    24    1
@<TRIPOS>MOLECULE
*****
 24 27 0 0 0
SMALL
GASTEIGER

@<TRIPOS>ATOM
      1 C          61.6968   87.2092    9.4697 C.2     1  UNL1        0.3270
      2 N          61.6459   88.6892    9.2308 N.2     1  UNL1       -0.0380
      3 C          62.2795   89.3707   10.4073 C.2     1  UNL1        0.2637
      4 C          62.5106   90.8185   10.7238 C.2     1  UNL1        0.2821
      5 N          63.1843   91.2077   12.0063 N.2     1  UNL1       -0.0268
      6 C          63.6268   90.1489   12.9723 C.2     1  UNL1        0.3760
      7 N          64.3111   90.2286   14.3047 N.2     1  UNL1       -0.0306
      8 C          64.5028   88.8300   14.8117 C.2     1  UNL1        0.2361
      9 C          63.9370   87.8859   13.7926 C.2     1  UNL1        0.0583
     10 C          63.3956   88.7010   12.6558 C.2     1  UNL1        0.1203
     11 C          62.7220   88.3119   11.3733 C.3     1  UNL1        0.2596
     12 N          62.3619   86.9760   10.7938 N.pl3   1  UNL1       -0.1887
     13 C          62.6213   85.6413   11.4272 C.3     1  UNL1        0.1605
     14 C          63.3278   84.5683   10.6530 C.3     1  UNL1        0.0477
     15 C          63.5872   83.2336   11.2865 C.3     1  UNL1        0.0192
     16 C          63.1400   82.9719   12.6942 C.3     1  UNL1        0.0917
     17 C          62.4335   84.0449   13.4684 C.3     1  UNL1        0.0192
     18 C          62.1741   85.3796   12.8350 C.3     1  UNL1        0.0477
     19 C          63.3994   81.6372   13.3276 C.1     1  UNL1        0.0721
     20 N          63.6588   80.3025   13.9611 N.1     1  UNL1       -0.1959
     21 C          62.1303   85.3053    7.7558 C.3     1  UNL1        0.0450
     22 C          61.1745   86.1486    8.5465 C.3     1  UNL1        0.2165
     23 O          59.6962   85.9314    8.4140 O.3     1  UNL1       -0.3737
     24 H          59.2250   86.5548    8.9887 H       1  UNL1        0.2111
@<TRIPOS>BOND
     1    22    21    1
     2    22    23    1
     3    22     1    1
     4     1     2    2
     5     2     3    1
     6     3     4    2
     7     4     5    1
     8     5     6    2
     9     6     7    1
    10     7     8    2
    11     8     9    1
    12     9    10    2
    13    10    11    1
    14    11    12    1
    15    13    12    1
    16    13    14    1
    17    14    15    1
    18    15    16    1
    19    16    19    1
    20    19    20    3
    21    16    17    1
    22    17    18    1
    23    12     1    1
    24    18    13    1
    25    11     3    1
    26    10     6    1
    27    23    24    1
@<TRIPOS>MOLECULE
*****
 24 27 0 0 0
SMALL
GASTEIGER

@<TRIPOS>ATOM
      1 C          62.9068   83.1217   14.1948 C.2     1  UNL1        0.3270
      2 N          63.0380   83.5032   15.6395 N.2     1  UNL1       -0.0380
      3 C          63.2605   84.9850   15.7093 C.2     1  UNL1        0.2637
      4 C          63.4582   85.9168   16.8679 C.2     1  UNL1        0.2821
      5 N          63.6623   87.3829   16.6251 N.2     1  UNL1       -0.0268
      6 C          63.6687   87.9171   15.2234 C.2     1  UNL1        0.3760
      7 N          63.8453   89.3034   14.6785 N.2     1  UNL1       -0.0306
      8 C          63.7568   89.2284   13.1830 C.2     1  UNL1        0.2361
      9 C          63.5255   87.7957   12.8037 C.2     1  UNL1        0.0583
     10 C          63.4710   86.9853   14.0647 C.2     1  UNL1        0.1203
     11 C          63.2669   85.5192   14.3076 C.3     1  UNL1        0.2596
     12 N          63.0483   84.3676   13.3716 N.pl3   1  UNL1       -0.1887
     13 C          62.9828   84.4479   11.8752 C.3     1  UNL1        0.1605
     14 C          63.9261   83.6355   11.0385 C.3     1  UNL1        0.0477
     15 C          63.8605   83.7158    9.5421 C.3     1  UNL1        0.0192
     16 C          62.8516   84.6085    8.8824 C.3     1  UNL1        0.0917
     17 C          61.9083   85.4209    9.7191 C.3     1  UNL1        0.0192
     18 C          61.9739   85.3407   11.2155 C.3     1  UNL1        0.0477
     19 C          62.7860   84.6887    7.3860 C.1     1  UNL1        0.0721
     20 N          62.7204   84.7690    5.8895 N.1     1  UNL1       -0.1959
     21 C          61.3173   81.1094   13.7780 C.3     1  UNL1        0.0450
     22 C          62.6749   81.7373   13.6660 C.3     1  UNL1        0.2165
     23 O          63.8006   80.9808   13.0254 O.3     1  UNL1       -0.3737
     24 H          64.6028   81.5261   13.0340 H       1  UNL1        0.2111
@<TRIPOS>BOND
     1    22    21    1
     2    22    23    1
     3    22     1    1
     4     1     2    2
     5     2     3    1
     6     3     4    2
     7     4     5    1
     8     5     6    2
     9     6     7    1
    10     7     8    2
    11     8     9    1
    12     9    10    2
    13    10    11    1
    14    11    12    1
    15    13    12    1
    16    13    14    1
    17    14    15    1
    18    15    16    1
    19    16    19    1
    20    19    20    3
    21    16    17    1
    22    17    18    1
    23    12     1    1
    24    18    13    1
    25    11     3    1
    26    10     6    1
    27    23    24    1
@<TRIPOS>MOLECULE
*****
 24 27 0 0 0
SMALL
GASTEIGER

@<TRIPOS>ATOM
      1 C          63.1519   87.1613   12.5100 C.2     1  UNL1        0.3270
      2 N          63.4975   86.9793   13.9582 N.2     1  UNL1       -0.0380
      3 C          63.5055   85.5082   14.2516 C.2     1  UNL1        0.2637
      4 C          63.7789   84.7369   15.5086 C.2     1  UNL1        0.2821
      5 N          63.7117   83.2384   15.4987 N.2     1  UNL1       -0.0268
      6 C          63.3710   82.5113   14.2317 C.2     1  UNL1        0.3760
      7 N          63.2316   81.0509   13.9191 N.2     1  UNL1       -0.0306
      8 C          62.8720   80.9197   12.4688 C.2     1  UNL1        0.2361
      9 C          62.7891   82.2990   11.8851 C.2     1  UNL1        0.0583
     10 C          63.0976   83.2827   12.9747 C.2     1  UNL1        0.1203
     11 C          63.1648   84.7812   12.9846 C.3     1  UNL1        0.2596
     12 N          62.9463   85.8028   11.9082 N.pl3   1  UNL1       -0.1887
     13 C          62.5855   85.5163   10.4808 C.3     1  UNL1        0.1605
     14 C          61.2581   85.9577    9.9395 C.3     1  UNL1        0.0477
     15 C          60.8973   85.6711    8.5120 C.3     1  UNL1        0.0192
     16 C          61.8640   84.9431    7.6258 C.3     1  UNL1        0.0917
     17 C          63.1915   84.5017    8.1670 C.3     1  UNL1        0.0192
     18 C          63.5523   84.7882    9.5944 C.3     1  UNL1        0.0477
     19 C          61.5032   84.6566    6.1983 C.1     1  UNL1        0.0721
     20 N          61.1424   84.3700    4.7708 N.1     1  UNL1       -0.1959
     21 C          63.3480   89.7520   12.5054 C.3     1  UNL1        0.0450
     22 C          63.0329   88.4718   11.7899 C.3     1  UNL1        0.2165
     23 O          62.5987   88.5021   10.3545 O.3     1  UNL1       -0.3737
     24 H          62.4361   87.5967   10.0467 H       1  UNL1        0.2111
@<TRIPOS>BOND
     1    22    21    1
     2    22    23    1
     3    22     1    1
     4     1     2    2
     5     2     3    1
     6     3     4    2
     7     4     5    1
     8     5     6    2
     9     6     7    1
    10     7     8    2
    11     8     9    1
    12     9    10    2
    13    10    11    1
    14    11    12    1
    15    13    12    1
    16    13    14    1
    17    14    15    1
    18    15    16    1
    19    16    19    1
    20    19    20    3
    21    16    17    1
    22    17    18    1
    23    12     1    1
    24    18    13    1
    25    11     3    1
    26    10     6    1
    27    23    24    1
@<TRIPOS>MOLECULE
*****
 24 27 0 0 0
SMALL
GASTEIGER

@<TRIPOS>ATOM
      1 C          62.6457   89.0373   11.4959 C.2     1  UNL1        0.3270
      2 N          63.0834   89.3522   12.8956 N.2     1  UNL1       -0.0380
      3 C          63.4081   88.0584   13.5819 C.2     1  UNL1        0.2637
      4 C          63.8889   87.7512   14.9690 C.2     1  UNL1        0.2821
      5 N          64.1328   86.3295   15.3807 N.2     1  UNL1       -0.0268
      6 C          63.8957   85.2151   14.4050 C.2     1  UNL1        0.3760
      7 N          64.0481   83.7276   14.5240 N.2     1  UNL1       -0.0306
      8 C          63.6613   83.1156   13.2103 C.2     1  UNL1        0.2361
      9 C          63.2700   84.2247   12.2794 C.2     1  UNL1        0.0583
     10 C          63.4148   85.5224   13.0178 C.2     1  UNL1        0.1203
     11 C          63.1710   86.9440   12.6062 C.3     1  UNL1        0.2596
     12 N          62.6998   87.5490   11.3170 N.pl3   1  UNL1       -0.1887
     13 C          62.3451   86.7976   10.0683 C.3     1  UNL1        0.1605
     14 C          60.9288   86.7902    9.5742 C.3     1  UNL1        0.0477
     15 C          60.5741   86.0387    8.3253 C.3     1  UNL1        0.0192
     16 C          61.6356   85.2947    7.5706 C.3     1  UNL1        0.0917
     17 C          63.0519   85.3021    8.0647 C.3     1  UNL1        0.0192
     18 C          63.4066   86.0535    9.3135 C.3     1  UNL1        0.0477
     19 C          61.2808   84.5433    6.3218 C.1     1  UNL1        0.0721
     20 N          60.9260   83.7918    5.0730 N.1     1  UNL1       -0.1959
     21 C          63.1810   91.1075   10.0202 C.3     1  UNL1        0.0450
     22 C          62.2273   90.0355   10.4574 C.3     1  UNL1        0.2165
     23 O          60.8551   89.9617    9.8560 O.3     1  UNL1       -0.3737
     24 H          60.3708   89.2170   10.2459 H       1  UNL1        0.2111
@<TRIPOS>BOND
     1    22    21    1
     2    22    23    1
     3    22     1    1
     4     1     2    2
     5     2     3    1
     6     3     4    2
     7     4     5    1
     8     5     6    2
     9     6     7    1
    10     7     8    2
    11     8     9    1
    12     9    10    2
    13    10    11    1
    14    11    12    1
    15    13    12    1
    16    13    14    1
    17    14    15    1
    18    15    16    1
    19    16    19    1
    20    19    20    3
    21    16    17    1
    22    17    18    1
    23    12     1    1
    24    18    13    1
    25    11     3    1
    26    10     6    1
    27    23    24    1
@<TRIPOS>MOLECULE
*****
 24 27 0 0 0
SMALL
GASTEIGER

@<TRIPOS>ATOM
      1 C          61.8666   88.8189   10.9488 C.2     1  UNL1        0.3270
      2 N          61.3597   87.5626   10.3049 N.2     1  UNL1       -0.0380
      3 C          61.9619   86.3950   11.0291 C.2     1  UNL1        0.2637
      4 C          61.8234   84.9141   10.8357 C.2     1  UNL1        0.2821
      5 N          62.5639   83.9679   11.7337 N.2     1  UNL1       -0.0268
      6 C          63.4429   84.5028   12.8251 C.2     1  UNL1        0.3760
      7 N          64.2894   83.8193   13.8578 N.2     1  UNL1       -0.0306
      8 C          64.9510   84.8779   14.6893 C.2     1  UNL1        0.2361
      9 C          64.5135   86.2157   14.1707 C.2     1  UNL1        0.0583
     10 C          63.5814   85.9838   13.0185 C.2     1  UNL1        0.1203
     11 C          62.8409   86.9299   12.1205 C.3     1  UNL1        0.2596
     12 N          62.7820   88.4280   12.0709 N.pl3   1  UNL1       -0.1887
     13 C          63.5106   89.3697   12.9831 C.3     1  UNL1        0.1605
     14 C          63.4188   89.1948   14.4701 C.3     1  UNL1        0.0477
     15 C          64.1475   90.1366   15.3824 C.3     1  UNL1        0.0192
     16 C          64.9677   91.2532   14.8077 C.3     1  UNL1        0.0917
     17 C          65.0595   91.4281   13.3208 C.3     1  UNL1        0.0192
     18 C          64.3309   90.4864   12.4085 C.3     1  UNL1        0.0477
     19 C          65.6963   92.1949   15.7200 C.1     1  UNL1        0.0721
     20 N          66.4250   93.1367   16.6323 N.1     1  UNL1       -0.1959
     21 C          60.2066   90.8175   10.9552 C.3     1  UNL1        0.0450
     22 C          61.5190   90.2202   10.5419 C.3     1  UNL1        0.2165
     23 O          62.4838   91.0242    9.7218 O.3     1  UNL1       -0.3737
     24 H          63.2761   90.4940    9.5427 H       1  UNL1        0.2111
@<TRIPOS>BOND
     1    22    21    1
     2    22    23    1
     3    22     1    1
     4     1     2    2
     5     2     3    1
     6     3     4    2
     7     4     5    1
     8     5     6    2
     9     6     7    1
    10     7     8    2
    11     8     9    1
    12     9    10    2
    13    10    11    1
    14    11    12    1
    15    13    12    1
    16    13    14    1
    17    14    15    1
    18    15    16    1
    19    16    19    1
    20    19    20    3
    21    16    17    1
    22    17    18    1
    23    12     1    1
    24    18    13    1
    25    11     3    1
    26    10     6    1
    27    23    24    1
