@<TRIPOS>MOLECULE
*****
 30 33 0 0 0
SMALL
GASTEIGER

@<TRIPOS>ATOM
      1 C          62.3300   86.6500   10.7369 C.3     1  UNL1        0.1548
      2 C          61.9597   86.0988    9.3919 C.ar    1  UNL1        0.0028
      3 C          62.9724   85.3379    8.5885 C.ar    1  UNL1       -0.0023
      4 C          62.6021   84.7867    7.2435 C.ar    1  UNL1       -0.0003
      5 C          61.2191   84.9965    6.7019 C.ar    1  UNL1       -0.0000
      6 C          60.2064   85.7574    7.5053 C.ar    1  UNL1       -0.0003
      7 C          60.5767   86.3086    8.8504 C.ar    1  UNL1       -0.0023
      8 N          63.3804   85.9689   11.5632 N.pl3   1  UNL1       -0.3245
      9 H          64.3249   86.2316   11.4727 H       1  UNL1        0.1474
     10 C          62.3855   82.4060   13.0003 C.ar    1  UNL1        0.1430
     11 C          62.7740   83.4873   12.0361 C.ar    1  UNL1        0.0514
     12 C          62.9919   84.8877   12.5275 C.ar    1  UNL1        0.0512
     13 C          62.8212   85.2067   13.9832 C.ar    1  UNL1        0.0514
     14 C          62.4327   84.1254   14.9475 C.ar    1  UNL1        0.1430
     15 C          62.2148   82.7250   14.4560 C.ar    1  UNL1        0.0738
     16 C          62.3767   79.8446   13.4354 C.3     1  UNL1        0.2525
     17 O          62.1676   81.0056   12.5089 O.3     1  UNL1       -0.4713
     18 O          62.2621   84.4444   16.4032 O.3     1  UNL1       -0.4713
     19 C          62.6181   85.8071   16.9191 C.3     1  UNL1        0.2525
     20 C          61.6498   87.8823   11.2557 C.2     1  UNL1        0.1964
     21 O          60.2551   87.7959   11.8007 O.2     1  UNL1       -0.2892
     22 C          62.3645   89.2008   11.2293 C.2     1  UNL1        0.0569
     23 C          62.2583   90.2399   10.1528 C.2     1  UNL1        0.1014
     24 N          63.1391   91.3930   10.5331 N.2     1  UNL1       -0.2477
     25 C          63.7895   91.0666   11.8447 C.2     1  UNL1        0.0635
     26 C          64.7559   91.8280   12.7028 C.3     1  UNL1        0.0717
     27 C          65.2435   91.2346   13.9912 C.2     1  UNL1       -0.0198
     28 C          64.7648   89.8797   14.4215 C.2     1  UNL1       -0.0041
     29 C          63.7985   89.1183   13.5634 C.2     1  UNL1        0.0010
     30 C          63.3108   89.7117   12.2750 C.2     1  UNL1        0.0182
@<TRIPOS>BOND
     1    16    17    1
     2    17    10    1
     3    10    11   ar
     4    11    12   ar
     5    12     8    1
     6     8     1    1
     7     1    20    1
     8    20    21    2
     9    20    22    1
    10    22    23    2
    11    23    24    1
    12    24    25    2
    13    25    26    1
    14    26    27    1
    15    27    28    2
    16    28    29    1
    17    29    30    2
    18     1     2    1
    19     2     3   ar
    20     3     4   ar
    21     4     5   ar
    22     5     6   ar
    23     6     7   ar
    24    12    13   ar
    25    13    14   ar
    26    14    18    1
    27    18    19    1
    28    14    15   ar
    29    15    10   ar
    30    30    22    1
    31     7     2   ar
    32    30    25    1
    33     8     9    1
@<TRIPOS>MOLECULE
*****
 30 33 0 0 0
SMALL
GASTEIGER

@<TRIPOS>ATOM
      1 C          62.3176   86.6247   10.7216 C.3     1  UNL1        0.1548
      2 C          61.9556   86.0762    9.3732 C.ar    1  UNL1        0.0028
      3 C          60.5759   86.2869    8.8236 C.ar    1  UNL1       -0.0023
      4 C          60.2138   85.7385    7.4752 C.ar    1  UNL1       -0.0003
      5 C          61.2315   84.9793    6.6765 C.ar    1  UNL1       -0.0000
      6 C          62.6112   84.7687    7.2261 C.ar    1  UNL1       -0.0003
      7 C          62.9733   85.3171    8.5745 C.ar    1  UNL1       -0.0023
      8 N          63.3705   85.9481   11.5484 N.pl3   1  UNL1       -0.3245
      9 H          64.3143   86.2124   11.4559 H       1  UNL1        0.1474
     10 C          62.4446   84.1096   14.9414 C.ar    1  UNL1        0.1430
     11 C          62.8297   85.1888   13.9735 C.ar    1  UNL1        0.0514
     12 C          62.9854   84.8688   12.5163 C.ar    1  UNL1        0.0512
     13 C          62.7559   83.4695   12.0270 C.ar    1  UNL1        0.0514
     14 C          62.3707   82.3903   12.9950 C.ar    1  UNL1        0.1430
     15 C          62.2151   82.7103   14.4522 C.ar    1  UNL1        0.0738
     16 C          62.6443   85.7946   16.9089 C.3     1  UNL1        0.2525
     17 O          62.2890   84.4296   16.3986 O.3     1  UNL1       -0.4713
     18 O          62.1412   80.9910   12.5057 O.3     1  UNL1       -0.4713
     19 C          62.3893   79.8271   13.4188 C.3     1  UNL1        0.2525
     20 C          61.6268   87.8498   11.2431 C.2     1  UNL1        0.1964
     21 O          60.2313   87.7509   11.7839 O.2     1  UNL1       -0.2892
     22 C          62.3316   89.1738   11.2238 C.2     1  UNL1        0.0569
     23 C          62.2119   90.2209   10.1564 C.2     1  UNL1        0.1014
     24 N          63.0862   91.3773   10.5414 N.2     1  UNL1       -0.2477
     25 C          63.7462   91.0450   11.8467 C.2     1  UNL1        0.0635
     26 C          64.7117   91.8065   12.7058 C.3     1  UNL1        0.0717
     27 C          65.2107   91.2061   13.9865 C.2     1  UNL1       -0.0198
     28 C          64.7444   89.8443   14.4083 C.2     1  UNL1       -0.0041
     29 C          63.7790   89.0828   13.5492 C.2     1  UNL1        0.0010
     30 C          63.2799   89.6831   12.2685 C.2     1  UNL1        0.0182
@<TRIPOS>BOND
     1    16    17    1
     2    17    10    1
     3    10    11   ar
     4    11    12   ar
     5    12     8    1
     6     8     1    1
     7     1    20    1
     8    20    21    2
     9    20    22    1
    10    22    23    2
    11    23    24    1
    12    24    25    2
    13    25    26    1
    14    26    27    1
    15    27    28    2
    16    28    29    1
    17    29    30    2
    18     1     2    1
    19     2     3   ar
    20     3     4   ar
    21     4     5   ar
    22     5     6   ar
    23     6     7   ar
    24    12    13   ar
    25    13    14   ar
    26    14    18    1
    27    18    19    1
    28    14    15   ar
    29    15    10   ar
    30    30    22    1
    31     7     2   ar
    32    30    25    1
    33     8     9    1
@<TRIPOS>MOLECULE
*****
 30 33 0 0 0
SMALL
GASTEIGER

@<TRIPOS>ATOM
      1 C          63.0781   84.8227   13.1180 C.3     1  UNL1        0.1548
      2 C          63.2648   83.6108   12.2541 C.ar    1  UNL1        0.0028
      3 C          62.6313   82.3079   12.6428 C.ar    1  UNL1       -0.0023
      4 C          62.8180   81.0959   11.7788 C.ar    1  UNL1       -0.0003
      5 C          63.6381   81.1870   10.5263 C.ar    1  UNL1       -0.0000
      6 C          64.2716   82.4899   10.1376 C.ar    1  UNL1       -0.0003
      7 C          64.0849   83.7019   11.0015 C.ar    1  UNL1       -0.0023
      8 N          61.9147   85.7398   12.8824 N.pl3   1  UNL1       -0.3245
      9 H          61.2115   85.8283   13.5656 H       1  UNL1        0.1474
     10 C          62.3449   88.6699   10.2406 C.ar    1  UNL1        0.1430
     11 C          62.4368   87.8877   11.5172 C.ar    1  UNL1        0.0514
     12 C          61.8228   86.5219   11.6058 C.ar    1  UNL1        0.0512
     13 C          61.1170   85.9384   10.4178 C.ar    1  UNL1        0.0514
     14 C          61.0251   86.7207    9.1412 C.ar    1  UNL1        0.1430
     15 C          61.6390   88.0864    9.0527 C.ar    1  UNL1        0.0738
     16 C          62.9841   90.9264   11.3586 C.3     1  UNL1        0.2525
     17 O          62.9588   90.0357   10.1520 O.3     1  UNL1       -0.4713
     18 O          60.3193   86.1372    7.9532 O.3     1  UNL1       -0.4713
     19 C          58.9808   86.6723    7.5386 C.3     1  UNL1        0.2525
     20 C          64.0549   85.1176   14.2177 C.2     1  UNL1        0.1964
     21 O          65.4136   84.4825   14.2040 O.2     1  UNL1       -0.2892
     22 C          63.6727   86.0476   15.3308 C.2     1  UNL1        0.0569
     23 C          63.0907   85.6468   16.6539 C.2     1  UNL1        0.1014
     24 N          62.8639   86.8932   17.4571 N.2     1  UNL1       -0.2477
     25 C          63.3056   88.0643   16.6303 C.2     1  UNL1        0.0635
     26 C          63.3172   89.5389   16.9043 C.3     1  UNL1        0.0717
     27 C          63.8288   90.4910   15.8642 C.2     1  UNL1       -0.0198
     28 C          64.3287   89.9684   14.5501 C.2     1  UNL1       -0.0041
     29 C          64.3171   88.4937   14.2761 C.2     1  UNL1        0.0010
     30 C          63.8055   87.5416   15.3162 C.2     1  UNL1        0.0182
@<TRIPOS>BOND
     1    16    17    1
     2    17    10    1
     3    10    11   ar
     4    11    12   ar
     5    12     8    1
     6     8     1    1
     7     1    20    1
     8    20    21    2
     9    20    22    1
    10    22    23    2
    11    23    24    1
    12    24    25    2
    13    25    26    1
    14    26    27    1
    15    27    28    2
    16    28    29    1
    17    29    30    2
    18     1     2    1
    19     2     3   ar
    20     3     4   ar
    21     4     5   ar
    22     5     6   ar
    23     6     7   ar
    24    12    13   ar
    25    13    14   ar
    26    14    18    1
    27    18    19    1
    28    14    15   ar
    29    15    10   ar
    30    30    22    1
    31     7     2   ar
    32    30    25    1
    33     8     9    1
@<TRIPOS>MOLECULE
*****
 30 33 0 0 0
SMALL
GASTEIGER

@<TRIPOS>ATOM
      1 C          63.0903   84.8920   13.1177 C.3     1  UNL1        0.1548
      2 C          63.2794   83.6845   12.2482 C.ar    1  UNL1        0.0028
      3 C          62.6267   82.3852   12.6167 C.ar    1  UNL1       -0.0023
      4 C          62.8158   81.1777   11.7471 C.ar    1  UNL1       -0.0003
      5 C          63.6575   81.2696   10.5090 C.ar    1  UNL1       -0.0000
      6 C          64.3102   82.5688   10.1404 C.ar    1  UNL1       -0.0003
      7 C          64.1211   83.7764   11.0100 C.ar    1  UNL1       -0.0023
      8 N          61.9293   85.8120   12.8816 N.pl3   1  UNL1       -0.3245
      9 H          61.2334   85.9131   13.5705 H       1  UNL1        0.1474
     10 C          61.0349   86.7353    9.1270 C.ar    1  UNL1        0.1430
     11 C          61.1356   85.9695   10.4128 C.ar    1  UNL1        0.0514
     12 C          61.8287   86.5779   11.5958 C.ar    1  UNL1        0.0512
     13 C          62.4212   87.9521   11.4930 C.ar    1  UNL1        0.0514
     14 C          62.3205   88.7179   10.2072 C.ar    1  UNL1        0.1430
     15 C          61.6274   88.1095    9.0242 C.ar    1  UNL1        0.0738
     16 C          58.9846   86.6182    7.5356 C.3     1  UNL1        0.2525
     17 O          60.3418   86.1270    7.9439 O.3     1  UNL1       -0.4713
     18 O          62.9130   90.0921   10.1043 O.3     1  UNL1       -0.4713
     19 C          63.2217   90.8708   11.3486 C.3     1  UNL1        0.2525
     20 C          64.0623   85.1795   14.2236 C.2     1  UNL1        0.1964
     21 O          65.4175   84.5368   14.2167 O.2     1  UNL1       -0.2892
     22 C          63.6789   86.1098   15.3361 C.2     1  UNL1        0.0569
     23 C          63.0930   85.7095   16.6576 C.2     1  UNL1        0.1014
     24 N          62.8661   86.9559   17.4606 N.2     1  UNL1       -0.2477
     25 C          63.3117   88.1266   16.6354 C.2     1  UNL1        0.0635
     26 C          63.3249   89.6012   16.9099 C.3     1  UNL1        0.0717
     27 C          63.8405   90.5528   15.8714 C.2     1  UNL1       -0.0198
     28 C          64.3428   90.0298   14.5583 C.2     1  UNL1       -0.0041
     29 C          64.3296   88.5552   14.2837 C.2     1  UNL1        0.0010
     30 C          63.8140   87.6036   15.3223 C.2     1  UNL1        0.0182
@<TRIPOS>BOND
     1    16    17    1
     2    17    10    1
     3    10    11   ar
     4    11    12   ar
     5    12     8    1
     6     8     1    1
     7     1    20    1
     8    20    21    2
     9    20    22    1
    10    22    23    2
    11    23    24    1
    12    24    25    2
    13    25    26    1
    14    26    27    1
    15    27    28    2
    16    28    29    1
    17    29    30    2
    18     1     2    1
    19     2     3   ar
    20     3     4   ar
    21     4     5   ar
    22     5     6   ar
    23     6     7   ar
    24    12    13   ar
    25    13    14   ar
    26    14    18    1
    27    18    19    1
    28    14    15   ar
    29    15    10   ar
    30    30    22    1
    31     7     2   ar
    32    30    25    1
    33     8     9    1
@<TRIPOS>MOLECULE
*****
 30 33 0 0 0
SMALL
GASTEIGER

@<TRIPOS>ATOM
      1 C          62.0030   88.1720   11.2613 C.3     1  UNL1        0.1548
      2 C          61.1405   87.9946   10.0469 C.ar    1  UNL1        0.0028
      3 C          60.7592   86.6169    9.5925 C.ar    1  UNL1       -0.0023
      4 C          59.8967   86.4396    8.3782 C.ar    1  UNL1       -0.0003
      5 C          59.4156   87.6400    7.6183 C.ar    1  UNL1       -0.0000
      6 C          59.7970   89.0177    8.0726 C.ar    1  UNL1       -0.0003
      7 C          60.6595   89.1951    9.2870 C.ar    1  UNL1       -0.0023
      8 N          63.2056   87.2980   11.4612 N.pl3   1  UNL1       -0.3245
      9 H          64.0188   87.4501   10.9276 H       1  UNL1        0.1474
     10 C          63.5423   85.3546   14.9050 C.ar    1  UNL1        0.1430
     11 C          63.5788   86.4603   13.8920 C.ar    1  UNL1        0.0514
     12 C          63.1692   86.1923   12.4741 C.ar    1  UNL1        0.0512
     13 C          62.7231   84.8185   12.0692 C.ar    1  UNL1        0.0514
     14 C          62.6867   83.7129   13.0822 C.ar    1  UNL1        0.1430
     15 C          63.0963   83.9809   14.5001 C.ar    1  UNL1        0.0738
     16 C          62.9653   86.2044   17.2914 C.3     1  UNL1        0.2525
     17 O          63.9519   85.6226   16.3229 O.3     1  UNL1       -0.4713
     18 O          62.2407   82.3392   12.6773 O.3     1  UNL1       -0.4713
     19 C          61.7903   81.3591   13.7197 C.3     1  UNL1        0.2525
     20 C          61.6629   89.2233   12.2758 C.2     1  UNL1        0.1964
     21 O          60.2320   89.4639   12.6556 O.2     1  UNL1       -0.2892
     22 C          62.7539   90.0340   12.9104 C.2     1  UNL1        0.0569
     23 C          63.1175   90.0368   14.3656 C.2     1  UNL1        0.1014
     24 N          64.2611   90.9888   14.5557 N.2     1  UNL1       -0.2477
     25 C          64.6042   91.5742   13.2179 C.2     1  UNL1        0.0635
     26 C          65.6444   92.5684   12.7944 C.3     1  UNL1        0.0717
     27 C          65.7531   92.9725   11.3540 C.2     1  UNL1       -0.0198
     28 C          64.8216   92.3824   10.3371 C.2     1  UNL1       -0.0041
     29 C          63.7813   91.3882   10.7606 C.2     1  UNL1        0.0010
     30 C          63.6726   90.9841   12.2011 C.2     1  UNL1        0.0182
@<TRIPOS>BOND
     1    16    17    1
     2    17    10    1
     3    10    11   ar
     4    11    12   ar
     5    12     8    1
     6     8     1    1
     7     1    20    1
     8    20    21    2
     9    20    22    1
    10    22    23    2
    11    23    24    1
    12    24    25    2
    13    25    26    1
    14    26    27    1
    15    27    28    2
    16    28    29    1
    17    29    30    2
    18     1     2    1
    19     2     3   ar
    20     3     4   ar
    21     4     5   ar
    22     5     6   ar
    23     6     7   ar
    24    12    13   ar
    25    13    14   ar
    26    14    18    1
    27    18    19    1
    28    14    15   ar
    29    15    10   ar
    30    30    22    1
    31     7     2   ar
    32    30    25    1
    33     8     9    1
@<TRIPOS>MOLECULE
*****
 30 33 0 0 0
SMALL
GASTEIGER

@<TRIPOS>ATOM
      1 C          64.1242   89.4119   14.4643 C.3     1  UNL1        0.1548
      2 C          63.8086   88.3042   15.4252 C.ar    1  UNL1        0.0028
      3 C          63.0434   88.5965   16.6817 C.ar    1  UNL1       -0.0023
      4 C          62.7278   87.4888   17.6426 C.ar    1  UNL1       -0.0003
      5 C          63.1775   86.0887   17.3469 C.ar    1  UNL1       -0.0000
      6 C          63.9428   85.7964   16.0903 C.ar    1  UNL1       -0.0003
      7 C          64.2583   86.9041   15.1294 C.ar    1  UNL1       -0.0023
      8 N          64.2334   89.1232   12.9964 N.pl3   1  UNL1       -0.3245
      9 H          65.0905   89.2566   12.5309 H       1  UNL1        0.1474
     10 C          60.7783   89.1054   11.0441 C.ar    1  UNL1        0.1430
     11 C          61.9751   89.5974   11.8028 C.ar    1  UNL1        0.0514
     12 C          63.0366   88.6311   12.2378 C.ar    1  UNL1        0.0512
     13 C          62.9014   87.1727   11.9141 C.ar    1  UNL1        0.0514
     14 C          61.7046   86.6806   11.1554 C.ar    1  UNL1        0.1430
     15 C          60.6431   87.6470   10.7204 C.ar    1  UNL1        0.0738
     16 C          58.9842   90.8909   11.6300 C.3     1  UNL1        0.2525
     17 O          59.7167   90.0717   10.6090 O.3     1  UNL1       -0.4713
     18 O          61.5694   85.2222   10.8318 O.3     1  UNL1       -0.4713
     19 C          62.6143   84.2510   11.2954 C.3     1  UNL1        0.2525
     20 C          64.3306   90.8086   14.9713 C.2     1  UNL1        0.1964
     21 O          63.4500   91.3495   16.0584 O.2     1  UNL1       -0.2892
     22 C          65.4176   91.6641   14.3912 C.2     1  UNL1        0.0569
     23 C          66.6359   92.1538   15.1165 C.2     1  UNL1        0.1014
     24 N          67.4484   92.9724   14.1575 N.2     1  UNL1       -0.2477
     25 C          66.7323   92.9886   12.8396 C.2     1  UNL1        0.0635
     26 C          67.0610   93.6351   11.5266 C.3     1  UNL1        0.0717
     27 C          66.1346   93.4730   10.3581 C.2     1  UNL1       -0.0198
     28 C          64.8795   92.6644   10.5025 C.2     1  UNL1       -0.0041
     29 C          64.5509   92.0179   11.8155 C.2     1  UNL1        0.0010
     30 C          65.4773   92.1799   12.9840 C.2     1  UNL1        0.0182
@<TRIPOS>BOND
     1    16    17    1
     2    17    10    1
     3    10    11   ar
     4    11    12   ar
     5    12     8    1
     6     8     1    1
     7     1    20    1
     8    20    21    2
     9    20    22    1
    10    22    23    2
    11    23    24    1
    12    24    25    2
    13    25    26    1
    14    26    27    1
    15    27    28    2
    16    28    29    1
    17    29    30    2
    18     1     2    1
    19     2     3   ar
    20     3     4   ar
    21     4     5   ar
    22     5     6   ar
    23     6     7   ar
    24    12    13   ar
    25    13    14   ar
    26    14    18    1
    27    18    19    1
    28    14    15   ar
    29    15    10   ar
    30    30    22    1
    31     7     2   ar
    32    30    25    1
    33     8     9    1
@<TRIPOS>MOLECULE
*****
 30 33 0 0 0
SMALL
GASTEIGER

@<TRIPOS>ATOM
      1 C          64.1177   89.4133   14.4620 C.3     1  UNL1        0.1548
      2 C          63.7995   88.3122   15.4297 C.ar    1  UNL1        0.0028
      3 C          64.2236   86.9049   15.1305 C.ar    1  UNL1       -0.0023
      4 C          63.9054   85.8039   16.0982 C.ar    1  UNL1       -0.0003
      5 C          63.1632   86.1103   17.3651 C.ar    1  UNL1       -0.0000
      6 C          62.7390   87.5176   17.6644 C.ar    1  UNL1       -0.0003
      7 C          63.0572   88.6186   16.6966 C.ar    1  UNL1       -0.0023
      8 N          64.2384   89.1129   12.9974 N.pl3   1  UNL1       -0.3245
      9 H          65.1044   89.2229   12.5421 H       1  UNL1        0.1474
     10 C          61.6918   86.7247   11.1104 C.ar    1  UNL1        0.1430
     11 C          62.8903   87.1928   11.8814 C.ar    1  UNL1        0.0514
     12 C          63.0399   88.6449   12.2264 C.ar    1  UNL1        0.0512
     13 C          61.9909   89.6289   11.8005 C.ar    1  UNL1        0.0514
     14 C          60.7924   89.1607   11.0295 C.ar    1  UNL1        0.1430
     15 C          60.6428   87.7086   10.6845 C.ar    1  UNL1        0.0738
     16 C          62.4953   84.2642   11.3350 C.3     1  UNL1        0.2525
     17 O          61.5422   85.2725   10.7653 O.3     1  UNL1       -0.4713
     18 O          59.7435   90.1447   10.6036 O.3     1  UNL1       -0.4713
     19 C          58.9396   90.8781   11.6360 C.3     1  UNL1        0.2525
     20 C          64.3152   90.8148   14.9590 C.2     1  UNL1        0.1964
     21 O          63.4191   91.3643   16.0290 O.2     1  UNL1       -0.2892
     22 C          65.4086   91.6667   14.3858 C.2     1  UNL1        0.0569
     23 C          66.6271   92.1472   15.1169 C.2     1  UNL1        0.1014
     24 N          67.4471   92.9651   14.1638 N.2     1  UNL1       -0.2477
     25 C          66.7355   92.9902   12.8435 C.2     1  UNL1        0.0635
     26 C          67.0719   93.6401   11.5342 C.3     1  UNL1        0.0717
     27 C          66.1485   93.4874   10.3620 C.2     1  UNL1       -0.0198
     28 C          64.8887   92.6850   10.4992 C.2     1  UNL1       -0.0041
     29 C          64.5522   92.0351   11.8086 C.2     1  UNL1        0.0010
     30 C          65.4756   92.1877   12.9807 C.2     1  UNL1        0.0182
@<TRIPOS>BOND
     1    16    17    1
     2    17    10    1
     3    10    11   ar
     4    11    12   ar
     5    12     8    1
     6     8     1    1
     7     1    20    1
     8    20    21    2
     9    20    22    1
    10    22    23    2
    11    23    24    1
    12    24    25    2
    13    25    26    1
    14    26    27    1
    15    27    28    2
    16    28    29    1
    17    29    30    2
    18     1     2    1
    19     2     3   ar
    20     3     4   ar
    21     4     5   ar
    22     5     6   ar
    23     6     7   ar
    24    12    13   ar
    25    13    14   ar
    26    14    18    1
    27    18    19    1
    28    14    15   ar
    29    15    10   ar
    30    30    22    1
    31     7     2   ar
    32    30    25    1
    33     8     9    1
@<TRIPOS>MOLECULE
*****
 30 33 0 0 0
SMALL
GASTEIGER

@<TRIPOS>ATOM
      1 C          62.3102   87.6453   11.3099 C.3     1  UNL1        0.1548
      2 C          62.9508   88.9581   11.6509 C.ar    1  UNL1        0.0028
      3 C          63.5485   89.1704   13.0101 C.ar    1  UNL1       -0.0023
      4 C          64.1891   90.4832   13.3511 C.ar    1  UNL1       -0.0003
      5 C          64.2319   91.5837   12.3327 C.ar    1  UNL1       -0.0000
      6 C          63.6341   91.3714   10.9735 C.ar    1  UNL1       -0.0003
      7 C          62.9936   90.0586   10.6325 C.ar    1  UNL1       -0.0023
      8 N          63.1310   86.3899   11.3021 N.pl3   1  UNL1       -0.3245
      9 H          63.7007   86.1791   10.5273 H       1  UNL1        0.1474
     10 C          62.5952   83.1005   13.4567 C.ar    1  UNL1        0.1430
     11 C          62.6424   84.0348   12.2842 C.ar    1  UNL1        0.0514
     12 C          63.0839   85.4557   12.4747 C.ar    1  UNL1        0.0512
     13 C          63.4783   85.9422   13.8376 C.ar    1  UNL1        0.0514
     14 C          63.4312   85.0079   15.0101 C.ar    1  UNL1        0.1430
     15 C          62.9896   83.5870   14.8197 C.ar    1  UNL1        0.0738
     16 C          61.0935   81.0983   14.1541 C.3     1  UNL1        0.2525
     17 O          62.1537   81.6796   13.2663 O.3     1  UNL1       -0.4713
     18 O          63.8256   85.4944   16.3731 O.3     1  UNL1       -0.4713
     19 C          62.8057   86.1412   17.2628 C.3     1  UNL1        0.2525
     20 C          60.8487   87.5880   10.9767 C.2     1  UNL1        0.1964
     21 O          59.8324   88.0480   11.9794 O.2     1  UNL1       -0.2892
     22 C          60.4037   87.0707    9.6409 C.2     1  UNL1        0.0569
     23 C          59.0716   87.3200    8.9981 C.2     1  UNL1        0.1014
     24 N          59.0574   86.6167    7.6733 N.2     1  UNL1       -0.2477
     25 C          60.3807   85.9327    7.4974 C.2     1  UNL1        0.0635
     26 C          60.9355   85.0905    6.3870 C.3     1  UNL1        0.0717
     27 C          62.3224   84.5291    6.4927 C.2     1  UNL1       -0.0198
     28 C          63.1545   84.8097    7.7087 C.2     1  UNL1       -0.0041
     29 C          62.5997   85.6518    8.8191 C.2     1  UNL1        0.0010
     30 C          61.2128   86.2133    8.7135 C.2     1  UNL1        0.0182
@<TRIPOS>BOND
     1    16    17    1
     2    17    10    1
     3    10    11   ar
     4    11    12   ar
     5    12     8    1
     6     8     1    1
     7     1    20    1
     8    20    21    2
     9    20    22    1
    10    22    23    2
    11    23    24    1
    12    24    25    2
    13    25    26    1
    14    26    27    1
    15    27    28    2
    16    28    29    1
    17    29    30    2
    18     1     2    1
    19     2     3   ar
    20     3     4   ar
    21     4     5   ar
    22     5     6   ar
    23     6     7   ar
    24    12    13   ar
    25    13    14   ar
    26    14    18    1
    27    18    19    1
    28    14    15   ar
    29    15    10   ar
    30    30    22    1
    31     7     2   ar
    32    30    25    1
    33     8     9    1
@<TRIPOS>MOLECULE
*****
 30 33 0 0 0
SMALL
GASTEIGER

@<TRIPOS>ATOM
      1 C          62.3014   87.6580   11.2869 C.3     1  UNL1        0.1548
      2 C          62.9336   88.9807   11.6041 C.ar    1  UNL1        0.0028
      3 C          63.5337   89.2198   12.9579 C.ar    1  UNL1       -0.0023
      4 C          64.1660   90.5425   13.2751 C.ar    1  UNL1       -0.0003
      5 C          64.1980   91.6262   12.2384 C.ar    1  UNL1       -0.0000
      6 C          63.5979   91.3871   10.8847 C.ar    1  UNL1       -0.0003
      7 C          62.9657   90.0644   10.5675 C.ar    1  UNL1       -0.0023
      8 N          63.1320   86.4089   11.2932 N.pl3   1  UNL1       -0.3245
      9 H          63.7106   86.1987   10.5250 H       1  UNL1        0.1474
     10 C          63.4221   85.0441   15.0084 C.ar    1  UNL1        0.1430
     11 C          63.4730   85.9727   13.8316 C.ar    1  UNL1        0.0514
     12 C          63.0810   85.4802   12.4700 C.ar    1  UNL1        0.0512
     13 C          62.6381   84.0591   12.2853 C.ar    1  UNL1        0.0514
     14 C          62.5871   83.1304   13.4622 C.ar    1  UNL1        0.1430
     15 C          62.9792   83.6229   14.8237 C.ar    1  UNL1        0.0738
     16 C          62.7735   86.0989   17.2924 C.3     1  UNL1        0.2525
     17 O          63.8141   85.5365   16.3700 O.3     1  UNL1       -0.4713
     18 O          62.1442   81.7093   13.2775 O.3     1  UNL1       -0.4713
     19 C          61.1274   81.1139   14.2057 C.3     1  UNL1        0.2525
     20 C          60.8384   87.5842   10.9634 C.2     1  UNL1        0.1964
     21 O          59.8239   88.0373   11.9710 O.2     1  UNL1       -0.2892
     22 C          60.3903   87.0575    9.6324 C.2     1  UNL1        0.0569
     23 C          59.0532   87.2946    8.9951 C.2     1  UNL1        0.1014
     24 N          59.0372   86.5847    7.6738 N.2     1  UNL1       -0.2477
     25 C          60.3642   85.9089    7.4945 C.2     1  UNL1        0.0635
     26 C          60.9192   85.0653    6.3853 C.3     1  UNL1        0.0717
     27 C          62.3104   84.5138    6.4867 C.2     1  UNL1       -0.0198
     28 C          63.1467   84.8060    7.6972 C.2     1  UNL1       -0.0041
     29 C          62.5917   85.6496    8.8063 C.2     1  UNL1        0.0010
     30 C          61.2005   86.2011    8.7050 C.2     1  UNL1        0.0182
@<TRIPOS>BOND
     1    16    17    1
     2    17    10    1
     3    10    11   ar
     4    11    12   ar
     5    12     8    1
     6     8     1    1
     7     1    20    1
     8    20    21    2
     9    20    22    1
    10    22    23    2
    11    23    24    1
    12    24    25    2
    13    25    26    1
    14    26    27    1
    15    27    28    2
    16    28    29    1
    17    29    30    2
    18     1     2    1
    19     2     3   ar
    20     3     4   ar
    21     4     5   ar
    22     5     6   ar
    23     6     7   ar
    24    12    13   ar
    25    13    14   ar
    26    14    18    1
    27    18    19    1
    28    14    15   ar
    29    15    10   ar
    30    30    22    1
    31     7     2   ar
    32    30    25    1
    33     8     9    1
