@<TRIPOS>MOLECULE
*****
 20 22 0 0 0
SMALL
GASTEIGER

@<TRIPOS>ATOM
      1 C          63.3218   89.5264   13.0137 C.3     1  UNL1        0.0878
      2 C          63.0995   90.7864   12.2308 C.3     1  UNL1        0.0135
      3 C          63.3285   89.4888   11.5142 C.3     1  UNL1        0.0135
      4 C          64.3434   83.7355   14.2060 C.3     1  UNL1        0.0310
      5 C          64.0880   85.1833   13.9079 C.ar    1  UNL1       -0.0219
      6 C          64.6706   86.2453   14.7926 C.ar    1  UNL1       -0.0046
      7 C          64.4152   87.6930   14.4945 C.ar    1  UNL1       -0.0042
      8 C          63.5772   88.0787   13.3118 C.ar    1  UNL1       -0.0146
      9 C          62.9945   87.0167   12.4271 C.ar    1  UNL1       -0.0042
     10 C          63.2499   85.5690   12.7252 C.ar    1  UNL1       -0.0046
     11 C          63.2263   90.0669   14.4097 C.2     1  UNL1        0.2288
     12 O          62.0508   89.7136   15.2719 O.2     1  UNL1       -0.2745
     13 N          64.3062   90.9606   14.9434 N.am    1  UNL1       -0.2729
     14 C          64.2107   91.5011   16.3395 C.3     1  UNL1        0.1152
     15 C          65.4817   91.3139   14.0812 C.3     1  UNL1        0.1266
     16 C          66.6485   92.0507   14.6691 C.ar    1  UNL1        0.0273
     17 C          67.8098   91.4320   15.3894 C.ar    1  UNL1        0.0044
     18 C          68.7379   92.5346   15.8053 C.ar    1  UNL1        0.0072
     19 C          68.1503   93.8346   15.3421 C.ar    1  UNL1        0.0352
     20 S          66.8590   93.5356   14.6399 S.2     1  UNL1       -0.0891
@<TRIPOS>BOND
     1     4     5    1
     2     5     6   ar
     3     6     7   ar
     4     7     8   ar
     5     8     1    1
     6     1    11    1
     7    11    12    2
     8    11    13   am
     9    13    14    1
    10    13    15    1
    11    15    16    1
    12    16    17   ar
    13    17    18   ar
    14    18    19   ar
    15    19    20   ar
    16     1     2    1
    17     2     3    1
    18     8     9   ar
    19     9    10   ar
    20    10     5   ar
    21     3     1    1
    22    20    16   ar
@<TRIPOS>MOLECULE
*****
 20 22 0 0 0
SMALL
GASTEIGER

@<TRIPOS>ATOM
      1 C          63.1841   89.4313   12.7164 C.3     1  UNL1        0.0878
      2 C          62.8026   90.5979   11.8542 C.3     1  UNL1        0.0135
      3 C          62.8627   89.2191   11.2667 C.3     1  UNL1        0.0135
      4 C          64.4120   83.7895   14.3481 C.3     1  UNL1        0.0310
      5 C          64.1050   85.2000   13.9402 C.ar    1  UNL1       -0.0219
      6 C          63.2759   85.4638   12.7184 C.ar    1  UNL1       -0.0046
      7 C          62.9689   86.8742   12.3104 C.ar    1  UNL1       -0.0042
      8 C          63.4911   88.0209   13.1243 C.ar    1  UNL1       -0.0146
      9 C          64.3202   87.7571   14.3461 C.ar    1  UNL1       -0.0042
     10 C          64.6272   86.3466   14.7540 C.ar    1  UNL1       -0.0046
     11 C          63.3989   90.1334   14.0244 C.2     1  UNL1        0.2288
     12 O          62.3979   89.9803   15.1310 O.2     1  UNL1       -0.2745
     13 N          64.6146   90.9886   14.2258 N.am    1  UNL1       -0.2729
     14 C          64.8294   91.6907   15.5339 C.3     1  UNL1        0.1152
     15 C          65.6157   91.1417   13.1193 C.3     1  UNL1        0.1266
     16 C          65.7609   92.4587   12.4162 C.ar    1  UNL1        0.0273
     17 C          65.3546   92.7530   11.0026 C.ar    1  UNL1        0.0044
     18 C          65.6806   94.1889   10.7160 C.ar    1  UNL1        0.0072
     19 C          66.2883   94.7819   11.9524 C.ar    1  UNL1        0.0352
     20 S          66.3380   93.7127   13.0033 S.2     1  UNL1       -0.0891
@<TRIPOS>BOND
     1     4     5    1
     2     5     6   ar
     3     6     7   ar
     4     7     8   ar
     5     8     1    1
     6     1    11    1
     7    11    12    2
     8    11    13   am
     9    13    14    1
    10    13    15    1
    11    15    16    1
    12    16    17   ar
    13    17    18   ar
    14    18    19   ar
    15    19    20   ar
    16     1     2    1
    17     2     3    1
    18     8     9   ar
    19     9    10   ar
    20    10     5   ar
    21     3     1    1
    22    20    16   ar
@<TRIPOS>MOLECULE
*****
 20 22 0 0 0
SMALL
GASTEIGER

@<TRIPOS>ATOM
      1 C          61.3183   87.1676    9.9331 C.3     1  UNL1        0.0878
      2 C          60.1469   86.3826    9.4216 C.3     1  UNL1        0.0135
      3 C          59.9331   87.7335   10.0374 C.3     1  UNL1        0.0135
      4 C          64.4584   91.6321   12.4245 C.3     1  UNL1        0.0310
      5 C          63.6734   90.5160   11.8016 C.ar    1  UNL1       -0.0219
      6 C          63.1100   90.6749   10.4206 C.ar    1  UNL1       -0.0046
      7 C          62.3250   89.5588    9.7977 C.ar    1  UNL1       -0.0042
      8 C          62.1033   88.2837   10.5559 C.ar    1  UNL1       -0.0146
      9 C          62.6667   88.1247   11.9370 C.ar    1  UNL1       -0.0042
     10 C          63.4517   89.2409   12.5598 C.ar    1  UNL1       -0.0046
     11 C          62.4308   86.2139    9.6124 C.2     1  UNL1        0.2288
     12 O          63.1813   86.3443    8.3202 O.2     1  UNL1       -0.2745
     13 N          62.7927   85.1299   10.5839 N.am    1  UNL1       -0.2729
     14 C          63.9053   84.1762   10.2632 C.3     1  UNL1        0.1152
     15 C          62.0423   84.9994   11.8761 C.3     1  UNL1        0.1266
     16 C          62.7601   84.5668   13.1200 C.ar    1  UNL1        0.0273
     17 C          63.7955   85.3594   13.8614 C.ar    1  UNL1        0.0044
     18 C          64.2439   84.5480   15.0406 C.ar    1  UNL1        0.0072
     19 C          63.4857   83.2539   15.0280 C.ar    1  UNL1        0.0352
     20 S          62.5686   83.2654   13.8411 S.2     1  UNL1       -0.0891
@<TRIPOS>BOND
     1     4     5    1
     2     5     6   ar
     3     6     7   ar
     4     7     8   ar
     5     8     1    1
     6     1    11    1
     7    11    12    2
     8    11    13   am
     9    13    14    1
    10    13    15    1
    11    15    16    1
    12    16    17   ar
    13    17    18   ar
    14    18    19   ar
    15    19    20   ar
    16     1     2    1
    17     2     3    1
    18     8     9   ar
    19     9    10   ar
    20    10     5   ar
    21     3     1    1
    22    20    16   ar
@<TRIPOS>MOLECULE
*****
 20 22 0 0 0
SMALL
GASTEIGER

@<TRIPOS>ATOM
      1 C          60.7548   89.1217   11.2086 C.3     1  UNL1        0.0878
      2 C          59.3880   88.5699   11.4867 C.3     1  UNL1        0.0135
      3 C          59.9302   89.6885   12.3262 C.3     1  UNL1        0.0135
      4 C          65.6693   92.5271   11.7091 C.3     1  UNL1        0.0310
      5 C          64.4407   91.6758   11.5840 C.ar    1  UNL1       -0.0219
      6 C          63.6911   91.6269   10.2857 C.ar    1  UNL1       -0.0046
      7 C          62.4625   90.7756   10.1605 C.ar    1  UNL1       -0.0042
      8 C          61.9834   89.9731   11.3337 C.ar    1  UNL1       -0.0146
      9 C          62.7330   90.0219   12.6321 C.ar    1  UNL1       -0.0042
     10 C          63.9616   90.8733   12.7572 C.ar    1  UNL1       -0.0046
     11 C          61.1526   88.2593   10.0476 C.2     1  UNL1        0.2288
     12 O          60.6415   88.5708    8.6721 O.2     1  UNL1       -0.2745
     13 N          62.0614   87.0854   10.2620 N.am    1  UNL1       -0.2729
     14 C          62.4592   86.2230    9.1009 C.3     1  UNL1        0.1152
     15 C          62.5725   86.7739   11.6373 C.3     1  UNL1        0.1266
     16 C          62.7883   85.3487   12.0523 C.ar    1  UNL1        0.0273
     17 C          62.4212   84.1328   11.2543 C.ar    1  UNL1        0.0044
     18 C          62.8152   82.9218   12.0470 C.ar    1  UNL1        0.0072
     19 C          63.4258   83.3893   13.3349 C.ar    1  UNL1        0.0352
     20 S          63.4092   84.8892   13.3382 S.2     1  UNL1       -0.0891
@<TRIPOS>BOND
     1     4     5    1
     2     5     6   ar
     3     6     7   ar
     4     7     8   ar
     5     8     1    1
     6     1    11    1
     7    11    12    2
     8    11    13   am
     9    13    14    1
    10    13    15    1
    11    15    16    1
    12    16    17   ar
    13    17    18   ar
    14    18    19   ar
    15    19    20   ar
    16     1     2    1
    17     2     3    1
    18     8     9   ar
    19     9    10   ar
    20    10     5   ar
    21     3     1    1
    22    20    16   ar
@<TRIPOS>MOLECULE
*****
 20 22 0 0 0
SMALL
GASTEIGER

@<TRIPOS>ATOM
      1 C          63.9432   90.6350   14.1301 C.3     1  UNL1        0.0878
      2 C          63.8428   91.6187   13.0022 C.3     1  UNL1        0.0135
      3 C          63.3075   90.2276   12.8340 C.3     1  UNL1        0.0135
      4 C          63.3958   85.5168   17.2132 C.3     1  UNL1        0.0310
      5 C          63.5327   86.7964   16.4424 C.ar    1  UNL1       -0.0219
      6 C          64.2326   86.8016   15.1158 C.ar    1  UNL1       -0.0046
      7 C          64.3695   88.0811   14.3450 C.ar    1  UNL1       -0.0042
      8 C          63.8064   89.3554   14.9009 C.ar    1  UNL1       -0.0146
      9 C          63.1064   89.3502   16.2275 C.ar    1  UNL1       -0.0042
     10 C          62.9695   88.0706   16.9983 C.ar    1  UNL1       -0.0046
     11 C          64.6264   91.4868   15.1585 C.2     1  UNL1        0.2288
     12 O          63.9251   91.8206   16.4418 O.2     1  UNL1       -0.2745
     13 N          66.0109   92.0047   14.9037 N.am    1  UNL1       -0.2729
     14 C          66.6941   92.8566   15.9322 C.3     1  UNL1        0.1152
     15 C          66.7122   91.6709   13.6205 C.3     1  UNL1        0.1266
     16 C          66.7015   92.6491   12.4834 C.ar    1  UNL1        0.0273
     17 C          66.2984   94.0916   12.5651 C.ar    1  UNL1        0.0044
     18 C          66.4398   94.6905   11.1971 C.ar    1  UNL1        0.0072
     19 C          66.9302   93.6182   10.2700 C.ar    1  UNL1        0.0352
     20 S          67.0919   92.3565   11.0650 S.2     1  UNL1       -0.0891
@<TRIPOS>BOND
     1     4     5    1
     2     5     6   ar
     3     6     7   ar
     4     7     8   ar
     5     8     1    1
     6     1    11    1
     7    11    12    2
     8    11    13   am
     9    13    14    1
    10    13    15    1
    11    15    16    1
    12    16    17   ar
    13    17    18   ar
    14    18    19   ar
    15    19    20   ar
    16     1     2    1
    17     2     3    1
    18     8     9   ar
    19     9    10   ar
    20    10     5   ar
    21     3     1    1
    22    20    16   ar
@<TRIPOS>MOLECULE
*****
 20 22 0 0 0
SMALL
GASTEIGER

@<TRIPOS>ATOM
      1 C          64.8884   91.3119   14.4730 C.3     1  UNL1        0.0878
      2 C          65.6302   92.6063   14.3177 C.3     1  UNL1        0.0135
      3 C          65.7636   91.8126   15.5835 C.3     1  UNL1        0.0135
      4 C          62.8963   86.2152   16.9337 C.3     1  UNL1        0.0310
      5 C          63.3943   87.4894   16.3185 C.ar    1  UNL1       -0.0219
      6 C          63.0356   88.8095   16.9337 C.ar    1  UNL1       -0.0046
      7 C          63.5336   90.0837   16.3185 C.ar    1  UNL1       -0.0042
      8 C          64.3903   90.0377   15.0882 C.ar    1  UNL1       -0.0146
      9 C          64.7491   88.7176   14.4730 C.ar    1  UNL1       -0.0042
     10 C          64.2510   87.4434   15.0882 C.ar    1  UNL1       -0.0046
     11 C          64.1861   91.2537   13.1488 C.2     1  UNL1        0.2288
     12 O          62.8122   90.6593   13.0540 O.2     1  UNL1       -0.2745
     13 N          64.8578   91.7900   11.9195 N.am    1  UNL1       -0.2729
     14 C          64.1554   91.7318   10.5952 C.3     1  UNL1        0.1152
     15 C          66.2316   92.3844   12.0142 C.3     1  UNL1        0.1266
     16 C          66.9564   92.8004   10.7686 C.ar    1  UNL1        0.0273
     17 C          67.9580   91.9768   10.0146 C.ar    1  UNL1        0.0044
     18 C          68.4275   92.7805    8.8383 C.ar    1  UNL1        0.0072
     19 C          67.7161   94.1007    8.8653 C.ar    1  UNL1        0.0352
     20 S          66.8069   94.1131   10.0583 S.2     1  UNL1       -0.0891
@<TRIPOS>BOND
     1     4     5    1
     2     5     6   ar
     3     6     7   ar
     4     7     8   ar
     5     8     1    1
     6     1    11    1
     7    11    12    2
     8    11    13   am
     9    13    14    1
    10    13    15    1
    11    15    16    1
    12    16    17   ar
    13    17    18   ar
    14    18    19   ar
    15    19    20   ar
    16     1     2    1
    17     2     3    1
    18     8     9   ar
    19     9    10   ar
    20    10     5   ar
    21     3     1    1
    22    20    16   ar
@<TRIPOS>MOLECULE
*****
 20 22 0 0 0
SMALL
GASTEIGER

@<TRIPOS>ATOM
      1 C          63.9347   90.4809   14.0802 C.3     1  UNL1        0.0878
      2 C          62.8688   89.9995   13.1411 C.3     1  UNL1        0.0135
      3 C          63.9497   90.9128   12.6438 C.3     1  UNL1        0.0135
      4 C          68.8073   93.3529   16.0826 C.3     1  UNL1        0.0310
      5 C          67.5891   92.6349   15.5820 C.ar    1  UNL1       -0.0219
      6 C          67.6536   91.8478   14.3068 C.ar    1  UNL1       -0.0046
      7 C          66.4355   91.1298   13.8062 C.ar    1  UNL1       -0.0042
      8 C          65.1529   91.1989   14.5808 C.ar    1  UNL1       -0.0146
      9 C          65.0884   91.9860   15.8560 C.ar    1  UNL1       -0.0042
     10 C          66.3065   92.7040   16.3566 C.ar    1  UNL1       -0.0046
     11 C          63.4967   89.7996   15.3427 C.2     1  UNL1        0.2288
     12 O          62.7525   90.5713   16.3919 O.2     1  UNL1       -0.2745
     13 N          63.8028   88.3468   15.5560 N.am    1  UNL1       -0.2729
     14 C          63.3647   87.6655   16.8186 C.3     1  UNL1        0.1152
     15 C          64.5469   87.5752   14.5069 C.3     1  UNL1        0.1266
     16 C          64.0602   86.2203   14.0858 C.ar    1  UNL1        0.0273
     17 C          63.1401   85.9318   12.9368 C.ar    1  UNL1        0.0044
     18 C          62.9194   84.4492   12.8806 C.ar    1  UNL1        0.0072
     19 C          63.7031   83.8214   13.9949 C.ar    1  UNL1        0.0352
     20 S          64.4081   84.9159   14.7397 S.2     1  UNL1       -0.0891
@<TRIPOS>BOND
     1     4     5    1
     2     5     6   ar
     3     6     7   ar
     4     7     8   ar
     5     8     1    1
     6     1    11    1
     7    11    12    2
     8    11    13   am
     9    13    14    1
    10    13    15    1
    11    15    16    1
    12    16    17   ar
    13    17    18   ar
    14    18    19   ar
    15    19    20   ar
    16     1     2    1
    17     2     3    1
    18     8     9   ar
    19     9    10   ar
    20    10     5   ar
    21     3     1    1
    22    20    16   ar
@<TRIPOS>MOLECULE
*****
 20 22 0 0 0
SMALL
GASTEIGER

@<TRIPOS>ATOM
      1 C          61.7539   87.2488   10.3041 C.3     1  UNL1        0.0878
      2 C          61.4001   87.5019    8.8686 C.3     1  UNL1        0.0135
      3 C          62.4230   86.4615    9.2167 C.3     1  UNL1        0.0135
      4 C          64.4202   84.8539   15.1161 C.3     1  UNL1        0.0310
      5 C          63.7536   85.4526   13.9131 C.ar    1  UNL1       -0.0219
      6 C          62.9623   84.5817   12.9829 C.ar    1  UNL1       -0.0046
      7 C          62.2957   85.1804   11.7799 C.ar    1  UNL1       -0.0042
      8 C          62.4205   86.6501   11.5071 C.ar    1  UNL1       -0.0146
      9 C          63.2118   87.5210   12.4372 C.ar    1  UNL1       -0.0042
     10 C          63.8784   86.9223   13.6402 C.ar    1  UNL1       -0.0046
     11 C          60.8533   88.2441   10.9737 C.2     1  UNL1        0.2288
     12 O          59.6178   87.7779   11.6851 O.2     1  UNL1       -0.2745
     13 N          61.1882   89.7056   10.9318 N.am    1  UNL1       -0.2729
     14 C          60.2876   90.7010   11.6014 C.3     1  UNL1        0.1152
     15 C          62.4237   90.1720   10.2204 C.3     1  UNL1        0.1266
     16 C          63.4482   90.9869   10.9525 C.ar    1  UNL1        0.0273
     17 C          64.3536   92.0172   10.3450 C.ar    1  UNL1        0.0044
     18 C          65.2123   92.5818   11.4377 C.ar    1  UNL1        0.0072
     19 C          64.8376   91.9005   12.7204 C.ar    1  UNL1        0.0352
     20 S          63.7474   90.9149   12.4206 S.2     1  UNL1       -0.0891
@<TRIPOS>BOND
     1     4     5    1
     2     5     6   ar
     3     6     7   ar
     4     7     8   ar
     5     8     1    1
     6     1    11    1
     7    11    12    2
     8    11    13   am
     9    13    14    1
    10    13    15    1
    11    15    16    1
    12    16    17   ar
    13    17    18   ar
    14    18    19   ar
    15    19    20   ar
    16     1     2    1
    17     2     3    1
    18     8     9   ar
    19     9    10   ar
    20    10     5   ar
    21     3     1    1
    22    20    16   ar
@<TRIPOS>MOLECULE
*****
 20 22 0 0 0
SMALL
GASTEIGER

@<TRIPOS>ATOM
      1 C          63.7236   83.2482   11.5276 C.3     1  UNL1        0.0878
      2 C          64.7951   82.2202   11.7394 C.3     1  UNL1        0.0135
      3 C          64.8871   83.1722   10.5840 C.3     1  UNL1        0.0135
      4 C          60.6875   87.8043    9.0733 C.3     1  UNL1        0.0310
      5 C          61.4465   86.6653    9.6869 C.ar    1  UNL1       -0.0219
      6 C          61.3296   86.3917   11.1570 C.ar    1  UNL1       -0.0046
      7 C          62.0887   85.2527   11.7706 C.ar    1  UNL1       -0.0042
      8 C          62.9646   84.3872   10.9140 C.ar    1  UNL1       -0.0146
      9 C          63.0814   84.6608    9.4438 C.ar    1  UNL1       -0.0042
     10 C          62.3224   85.7999    8.8303 C.ar    1  UNL1       -0.0046
     11 C          62.8237   82.9286   12.6843 C.2     1  UNL1        0.2288
     12 O          61.6592   82.0021   12.4949 O.2     1  UNL1       -0.2745
     13 N          63.0882   83.5353   14.0303 N.am    1  UNL1       -0.2729
     14 C          62.1882   83.2156   15.1871 C.3     1  UNL1        0.1152
     15 C          64.2526   84.4617   14.2197 C.3     1  UNL1        0.1266
     16 C          64.0485   85.8010   14.8635 C.ar    1  UNL1        0.0273
     17 C          64.3287   87.1336   14.2343 C.ar    1  UNL1        0.0044
     18 C          63.9817   88.1991   15.2314 C.ar    1  UNL1        0.0072
     19 C          63.4872   87.5252   16.4768 C.ar    1  UNL1        0.0352
     20 S          63.5284   86.0431   16.2495 S.2     1  UNL1       -0.0891
@<TRIPOS>BOND
     1     4     5    1
     2     5     6   ar
     3     6     7   ar
     4     7     8   ar
     5     8     1    1
     6     1    11    1
     7    11    12    2
     8    11    13   am
     9    13    14    1
    10    13    15    1
    11    15    16    1
    12    16    17   ar
    13    17    18   ar
    14    18    19   ar
    15    19    20   ar
    16     1     2    1
    17     2     3    1
    18     8     9   ar
    19     9    10   ar
    20    10     5   ar
    21     3     1    1
    22    20    16   ar
