@<TRIPOS>MOLECULE
*****
 30 33 0 0 0
SMALL
GASTEIGER

@<TRIPOS>ATOM
      1 C          64.5342   91.1908   12.7299 C.ar    1  UNL1        0.0515
      2 C          65.2125   90.7493   13.9928 C.ar    1  UNL1        0.0160
      3 C          64.9084   89.4011   14.5756 C.ar    1  UNL1        0.0174
      4 C          63.9260   88.4943   13.8955 C.ar    1  UNL1        0.0712
      5 C          63.2476   88.9357   12.6326 C.ar    1  UNL1        0.0729
      6 CL         62.2652   88.0289   11.9526 Cl      1  UNL1       -0.0809
      7 C          63.5517   90.2840   12.0498 C.ar    1  UNL1        0.0273
      8 N          63.6219   87.1460   14.4784 N.am    1  UNL1       -0.2070
      9 C          63.3581   86.8500   15.9251 C.2     1  UNL1        0.2360
     10 O          63.3520   87.8503   17.0428 O.2     1  UNL1       -0.2741
     11 C          63.1014   85.3781   16.0578 C.3     1  UNL1        0.0995
     12 C          63.2066   84.7644   14.6930 C.3     1  UNL1        0.1087
     13 C          63.5283   85.8570   13.7170 C.2     1  UNL1        0.2393
     14 O          63.7223   85.6899   12.2390 O.2     1  UNL1       -0.2738
     15 C          63.0224   83.3129   14.3625 C.ar    1  UNL1       -0.0134
     16 C          64.1634   82.5226   13.7935 C.ar    1  UNL1       -0.0038
     17 C          63.9792   81.0711   13.4629 C.ar    1  UNL1       -0.0003
     18 C          62.6541   80.4100   13.7014 C.ar    1  UNL1       -0.0000
     19 C          61.5131   81.2002   14.2704 C.ar    1  UNL1       -0.0003
     20 C          61.6974   82.6516   14.6009 C.ar    1  UNL1       -0.0038
     21 O          67.2217   91.7256   11.5088 O.2     1  UNL1       -0.2682
     22 C          66.1820   92.8065   11.5365 C.2     1  UNL1        0.2672
     23 N          64.8383   92.5391   12.1470 N.am    1  UNL1       -0.2791
     24 H          64.1559   93.2485   12.1652 H       1  UNL1        0.1552
     25 C          66.4861   94.1548   10.9536 C.ar    1  UNL1        0.1348
     26 C          67.1695   94.2596    9.6225 C.ar    1  UNL1        0.0238
     27 C          67.4735   95.6079    9.0396 C.ar    1  UNL1        0.0033
     28 C          67.0942   96.8513    9.7880 C.ar    1  UNL1        0.0207
     29 C          66.4108   96.7465   11.1191 C.ar    1  UNL1        0.0990
     30 N          66.1067   95.3982   11.7019 N.ar    1  UNL1       -0.2392
@<TRIPOS>BOND
     1    21    22    2
     2    22    23   am
     3    23     1    1
     4     1     2   ar
     5     2     3   ar
     6     3     4   ar
     7     4     8    1
     8     8     9   am
     9     9    10    2
    10     9    11    1
    11    11    12    1
    12    12    15    1
    13    15    16   ar
    14    16    17   ar
    15    17    18   ar
    16    18    19   ar
    17    19    20   ar
    18    12    13    1
    19    13    14    2
    20     4     5   ar
    21     5     6    1
    22     5     7   ar
    23    22    25    1
    24    25    26   ar
    25    26    27   ar
    26    27    28   ar
    27    28    29   ar
    28    29    30   ar
    29     7     1   ar
    30    30    25   ar
    31    13     8   am
    32    20    15   ar
    33    23    24    1
@<TRIPOS>MOLECULE
*****
 30 33 0 0 0
SMALL
GASTEIGER

@<TRIPOS>ATOM
      1 C          63.1782   86.9654   13.1765 C.ar    1  UNL1        0.0515
      2 C          64.1581   87.3971   14.2269 C.ar    1  UNL1        0.0160
      3 C          64.7226   88.7865   14.2003 C.ar    1  UNL1        0.0174
      4 C          64.3071   89.7443   13.1233 C.ar    1  UNL1        0.0712
      5 C          63.3273   89.3127   12.0728 C.ar    1  UNL1        0.0729
      6 CL         62.9118   90.2705   10.9958 Cl      1  UNL1       -0.0809
      7 C          62.7628   87.9232   12.0995 C.ar    1  UNL1        0.0273
      8 N          64.8717   91.1338   13.0967 N.am    1  UNL1       -0.2070
      9 C          65.1390   91.9999   14.2919 C.2     1  UNL1        0.2360
     10 O          64.8889   91.6285   15.7235 O.2     1  UNL1       -0.2741
     11 C          65.7005   93.3025   13.8043 C.3     1  UNL1        0.0995
     12 C          65.7802   93.2415   12.3076 C.3     1  UNL1        0.1087
     13 C          65.2679   91.9012   11.8703 C.2     1  UNL1        0.2393
     14 O          65.1692   91.4140   10.4551 O.2     1  UNL1       -0.2738
     15 C          66.2837   94.3298   11.4064 C.ar    1  UNL1       -0.0134
     16 C          67.0223   93.9803   10.1486 C.ar    1  UNL1       -0.0038
     17 C          67.5258   95.0686    9.2474 C.ar    1  UNL1       -0.0003
     18 C          67.2907   96.5064    9.6041 C.ar    1  UNL1       -0.0000
     19 C          66.5519   96.8560   10.8620 C.ar    1  UNL1       -0.0003
     20 C          66.0485   95.7677   11.7630 C.ar    1  UNL1       -0.0038
     21 O          65.0099   84.6074   13.4676 O.2     1  UNL1       -0.2682
     22 C          63.5295   84.3969   13.3486 C.2     1  UNL1        0.2672
     23 N          62.6137   85.5759   13.2031 N.am    1  UNL1       -0.2791
     24 H          61.6421   85.4377   13.1250 H       1  UNL1        0.1552
     25 C          62.9650   83.0074   13.3751 C.ar    1  UNL1        0.1348
     26 C          63.3384   82.0256   12.3044 C.ar    1  UNL1        0.0238
     27 C          62.7739   80.6362   12.3310 C.ar    1  UNL1        0.0033
     28 C          61.8360   80.2286   13.4284 C.ar    1  UNL1        0.0207
     29 C          61.4626   81.2104   14.4991 C.ar    1  UNL1        0.0990
     30 N          62.0271   82.5998   14.4725 N.ar    1  UNL1       -0.2392
@<TRIPOS>BOND
     1    21    22    2
     2    22    23   am
     3    23     1    1
     4     1     2   ar
     5     2     3   ar
     6     3     4   ar
     7     4     8    1
     8     8     9   am
     9     9    10    2
    10     9    11    1
    11    11    12    1
    12    12    15    1
    13    15    16   ar
    14    16    17   ar
    15    17    18   ar
    16    18    19   ar
    17    19    20   ar
    18    12    13    1
    19    13    14    2
    20     4     5   ar
    21     5     6    1
    22     5     7   ar
    23    22    25    1
    24    25    26   ar
    25    26    27   ar
    26    27    28   ar
    27    28    29   ar
    28    29    30   ar
    29     7     1   ar
    30    30    25   ar
    31    13     8   am
    32    20    15   ar
    33    23    24    1
@<TRIPOS>MOLECULE
*****
 30 33 0 0 0
SMALL
GASTEIGER

@<TRIPOS>ATOM
      1 C          60.8559   91.5004    4.3862 C.ar    1  UNL1        0.0515
      2 C          59.5851   92.2123    4.0280 C.ar    1  UNL1        0.0160
      3 C          59.5314   93.0825    2.8074 C.ar    1  UNL1        0.0174
      4 C          60.7484   93.2406    1.9449 C.ar    1  UNL1        0.0712
      5 C          62.0192   92.5287    2.3031 C.ar    1  UNL1        0.0729
      6 CL         63.2362   92.6868    1.4406 Cl      1  UNL1       -0.0809
      7 C          62.0729   91.6586    3.5237 C.ar    1  UNL1        0.0273
      8 N          60.6947   94.1108    0.7242 N.am    1  UNL1       -0.2070
      9 C          61.1263   95.5451    0.6443 C.2     1  UNL1        0.2360
     10 O          61.6874   96.3611    1.7709 O.2     1  UNL1       -0.2741
     11 C          60.8983   96.0202   -0.7601 C.3     1  UNL1        0.0995
     12 C          60.3257   94.8794   -1.5481 C.3     1  UNL1        0.1087
     13 C          60.1999   93.6994   -0.6307 C.2     1  UNL1        0.2393
     14 O          59.6720   92.3456   -1.0029 O.2     1  UNL1       -0.2738
     15 C          59.9457   94.9129   -2.9988 C.ar    1  UNL1       -0.0134
     16 C          60.9807   94.6477   -4.0515 C.ar    1  UNL1       -0.0038
     17 C          60.6007   94.6811   -5.5022 C.ar    1  UNL1       -0.0003
     18 C          59.1856   94.9798   -5.9001 C.ar    1  UNL1       -0.0000
     19 C          58.1505   95.2450   -4.8473 C.ar    1  UNL1       -0.0003
     20 C          58.5306   95.2116   -3.3967 C.ar    1  UNL1       -0.0038
     21 O          58.3295   90.3399    5.5136 O.2     1  UNL1       -0.2682
     22 C          59.6465   90.0500    6.1706 C.2     1  UNL1        0.2672
     23 N          60.9096   90.6302    5.6069 N.am    1  UNL1       -0.2791
     24 H          61.7740   90.4400    6.0381 H       1  UNL1        0.1552
     25 C          59.7003   89.1799    7.3913 C.ar    1  UNL1        0.1348
     26 C          59.2285   87.7578    7.3200 C.ar    1  UNL1        0.0238
     27 C          59.2823   86.8877    8.5406 C.ar    1  UNL1        0.0033
     28 C          59.8078   87.4397    9.8326 C.ar    1  UNL1        0.0207
     29 C          60.2796   88.8618    9.9039 C.ar    1  UNL1        0.0990
     30 N          60.2258   89.7319    8.6832 N.ar    1  UNL1       -0.2392
@<TRIPOS>BOND
     1    21    22    2
     2    22    23   am
     3    23     1    1
     4     1     2   ar
     5     2     3   ar
     6     3     4   ar
     7     4     8    1
     8     8     9   am
     9     9    10    2
    10     9    11    1
    11    11    12    1
    12    12    15    1
    13    15    16   ar
    14    16    17   ar
    15    17    18   ar
    16    18    19   ar
    17    19    20   ar
    18    12    13    1
    19    13    14    2
    20     4     5   ar
    21     5     6    1
    22     5     7   ar
    23    22    25    1
    24    25    26   ar
    25    26    27   ar
    26    27    28   ar
    27    28    29   ar
    28    29    30   ar
    29     7     1   ar
    30    30    25   ar
    31    13     8   am
    32    20    15   ar
    33    23    24    1
@<TRIPOS>MOLECULE
*****
 30 33 0 0 0
SMALL
GASTEIGER

@<TRIPOS>ATOM
      1 C          64.0596   90.8033   12.1927 C.ar    1  UNL1        0.0515
      2 C          63.1717   89.8680   11.4268 C.ar    1  UNL1        0.0160
      3 C          62.9177   88.4830   11.9437 C.ar    1  UNL1        0.0174
      4 C          63.5518   88.0333   13.2266 C.ar    1  UNL1        0.0712
      5 C          64.4397   88.9686   13.9925 C.ar    1  UNL1        0.0729
      6 CL         65.0738   88.5188   15.2754 Cl      1  UNL1       -0.0809
      7 C          64.6937   90.3536   13.4756 C.ar    1  UNL1        0.0273
      8 N          63.2978   86.6482   13.7435 N.am    1  UNL1       -0.2070
      9 C          63.1165   86.2634   15.1819 C.2     1  UNL1        0.2360
     10 O          63.1573   87.1961   16.3560 O.2     1  UNL1       -0.2741
     11 C          62.8872   84.7822   15.2402 C.3     1  UNL1        0.0995
     12 C          62.9268   84.2516   13.8377 C.3     1  UNL1        0.1087
     13 C          63.1805   85.4048   12.9127 C.2     1  UNL1        0.2393
     14 O          63.2967   85.3281   11.4192 O.2     1  UNL1       -0.2738
     15 C          62.7446   82.8191   13.4315 C.ar    1  UNL1       -0.0134
     16 C          62.0196   81.8689   14.3379 C.ar    1  UNL1       -0.0038
     17 C          61.8374   80.4365   13.9318 C.ar    1  UNL1       -0.0003
     18 C          62.3802   79.9543   12.6193 C.ar    1  UNL1       -0.0000
     19 C          63.1052   80.9045   11.7128 C.ar    1  UNL1       -0.0003
     20 C          63.2873   82.3368   12.1190 C.ar    1  UNL1       -0.0038
     21 O          66.8702   91.8278   11.9658 O.2     1  UNL1       -0.2682
     22 C          65.7189   92.7006   11.5624 C.2     1  UNL1        0.2672
     23 N          64.3136   92.1884   11.6758 N.am    1  UNL1       -0.2791
     24 H          63.5580   92.7612   11.4110 H       1  UNL1        0.1552
     25 C          65.9728   94.0857   11.0455 C.ar    1  UNL1        0.1348
     26 C          66.4179   94.2871    9.6273 C.ar    1  UNL1        0.0238
     27 C          66.6718   95.6721    9.1105 C.ar    1  UNL1        0.0033
     28 C          66.4807   96.8557   10.0118 C.ar    1  UNL1        0.0207
     29 C          66.0357   96.6544   11.4300 C.ar    1  UNL1        0.0990
     30 N          65.7818   95.2693   11.9469 N.ar    1  UNL1       -0.2392
@<TRIPOS>BOND
     1    21    22    2
     2    22    23   am
     3    23     1    1
     4     1     2   ar
     5     2     3   ar
     6     3     4   ar
     7     4     8    1
     8     8     9   am
     9     9    10    2
    10     9    11    1
    11    11    12    1
    12    12    15    1
    13    15    16   ar
    14    16    17   ar
    15    17    18   ar
    16    18    19   ar
    17    19    20   ar
    18    12    13    1
    19    13    14    2
    20     4     5   ar
    21     5     6    1
    22     5     7   ar
    23    22    25    1
    24    25    26   ar
    25    26    27   ar
    26    27    28   ar
    27    28    29   ar
    28    29    30   ar
    29     7     1   ar
    30    30    25   ar
    31    13     8   am
    32    20    15   ar
    33    23    24    1
@<TRIPOS>MOLECULE
*****
 30 33 0 0 0
SMALL
GASTEIGER

@<TRIPOS>ATOM
      1 C          64.3399   89.4938   13.3908 C.ar    1  UNL1        0.0515
      2 C          63.4082   88.9434   12.3521 C.ar    1  UNL1        0.0160
      3 C          62.9720   87.5099   12.4199 C.ar    1  UNL1        0.0174
      4 C          63.4676   86.6267   13.5265 C.ar    1  UNL1        0.0712
      5 C          64.3993   87.1771   14.5652 C.ar    1  UNL1        0.0729
      6 CL         64.8948   86.2940   15.6718 Cl      1  UNL1       -0.0809
      7 C          64.8354   88.6107   14.4973 C.ar    1  UNL1        0.0273
      8 N          63.0314   85.1931   13.5943 N.am    1  UNL1       -0.2070
      9 C          62.2547   84.5597   14.7104 C.2     1  UNL1        0.2360
     10 O          61.7778   85.2487   15.9545 O.2     1  UNL1       -0.2741
     11 C          62.0386   83.1164   14.3639 C.3     1  UNL1        0.0995
     12 C          62.6818   82.8578   13.0336 C.3     1  UNL1        0.1087
     13 C          63.2953   84.1412   12.5581 C.2     1  UNL1        0.2393
     14 O          64.0418   84.3382   11.2720 O.2     1  UNL1       -0.2738
     15 C          62.7069   81.5459   12.3066 C.ar    1  UNL1       -0.0134
     16 C          63.0120   81.5078   10.8385 C.ar    1  UNL1       -0.0038
     17 C          63.0372   80.1960   10.1115 C.ar    1  UNL1       -0.0003
     18 C          62.7572   78.9224   10.8527 C.ar    1  UNL1       -0.0000
     19 C          62.4521   78.9604   12.3209 C.ar    1  UNL1       -0.0003
     20 C          62.4269   80.2722   13.0478 C.ar    1  UNL1       -0.0038
     21 O          64.5781   90.8652   10.7332 O.2     1  UNL1       -0.2682
     22 C          64.8952   91.6131   11.9942 C.2     1  UNL1        0.2672
     23 N          64.7761   90.9275   13.3229 N.am    1  UNL1       -0.2791
     24 H          64.9842   91.4184   14.1506 H       1  UNL1        0.1552
     25 C          65.3314   93.0467   11.9264 C.ar    1  UNL1        0.1348
     26 C          65.1903   93.8138   10.6451 C.ar    1  UNL1        0.0238
     27 C          65.6264   95.2473   10.5773 C.ar    1  UNL1        0.0033
     28 C          66.2037   95.9138   11.7908 C.ar    1  UNL1        0.0207
     29 C          66.3448   95.1468   13.0721 C.ar    1  UNL1        0.0990
     30 N          65.9086   93.7132   13.1398 N.ar    1  UNL1       -0.2392
@<TRIPOS>BOND
     1    21    22    2
     2    22    23   am
     3    23     1    1
     4     1     2   ar
     5     2     3   ar
     6     3     4   ar
     7     4     8    1
     8     8     9   am
     9     9    10    2
    10     9    11    1
    11    11    12    1
    12    12    15    1
    13    15    16   ar
    14    16    17   ar
    15    17    18   ar
    16    18    19   ar
    17    19    20   ar
    18    12    13    1
    19    13    14    2
    20     4     5   ar
    21     5     6    1
    22     5     7   ar
    23    22    25    1
    24    25    26   ar
    25    26    27   ar
    26    27    28   ar
    27    28    29   ar
    28    29    30   ar
    29     7     1   ar
    30    30    25   ar
    31    13     8   am
    32    20    15   ar
    33    23    24    1
