@<TRIPOS>MOLECULE
*****
 41 45 0 0 0
SMALL
GASTEIGER

@<TRIPOS>ATOM
      1 C          61.4134   86.6794    9.3730 C.ar    1  UNL1        0.0272
      2 C          61.4894   87.9803   10.1159 C.ar    1  UNL1       -0.0004
      3 C          60.6554   89.1461    9.6740 C.ar    1  UNL1       -0.0024
      4 C          59.7454   89.0110    8.4893 C.ar    1  UNL1       -0.0003
      5 C          59.6695   87.7101    7.7464 C.ar    1  UNL1        0.0294
      6 C          60.5035   86.5443    8.1883 C.ar    1  UNL1        0.1401
      7 F          60.4275   85.2434    7.4454 F       1  UNL1       -0.2042
      8 C          63.0306   83.8872   11.6836 C.ar    1  UNL1       -0.0061
      9 C          63.9156   83.1820   10.6989 C.ar    1  UNL1       -0.0029
     10 C          63.9664   83.6425    9.2722 C.ar    1  UNL1       -0.0003
     11 C          63.1323   84.8083    8.8303 C.ar    1  UNL1        0.0001
     12 C          62.2475   85.5136    9.8150 C.ar    1  UNL1        0.0019
     13 C          62.1966   85.0530   11.2416 C.ar    1  UNL1       -0.0028
     14 C          62.9798   83.4267   13.1102 C.3     1  UNL1        0.0992
     15 C          64.6678   87.9948   14.9222 C.3     1  UNL1        0.0186
     16 C          63.9227   86.7097   15.1308 C.3     1  UNL1        0.0703
     17 C          63.8238   85.7107   14.0163 C.3     1  UNL1        0.0882
     18 N          63.0786   84.4257   14.2248 N.3     1  UNL1       -0.2666
     19 C          62.4324   84.1397   15.5479 C.3     1  UNL1        0.0897
     20 C          62.5313   85.1387   16.6624 C.3     1  UNL1        0.0861
     21 N          63.2764   86.4237   16.4538 N.3     1  UNL1       -0.2963
     22 H          64.0164   86.4522   17.1552 H       1  UNL1        0.1233
     23 C          60.7313   90.4470   10.4169 C.3     1  UNL1        0.1166
     24 N          62.0661   91.0212   10.7893 N.am    1  UNL1       -0.2969
     25 C          62.7048   90.6492   12.0946 C.2     1  UNL1        0.2461
     26 O          62.0088   89.7030   13.0274 O.2     1  UNL1       -0.2701
     27 H          62.5229   91.6423   10.1771 H       1  UNL1        0.1501
     28 C          64.0396   91.2235   12.4670 C.ar    1  UNL1        0.0530
     29 C          64.4736   91.2428   13.9026 C.ar    1  UNL1        0.0045
     30 C          65.8084   91.8170   14.2750 C.ar    1  UNL1       -0.0002
     31 C          66.7092   92.3719   13.2117 C.ar    1  UNL1       -0.0043
     32 C          66.2751   92.3526   11.7759 C.ar    1  UNL1       -0.0220
     33 C          64.9403   91.7784   11.4036 C.ar    1  UNL1        0.0002
     34 C          67.1758   92.9075   10.7125 C.3     1  UNL1        0.0264
     35 C          66.8537   94.2233   10.0683 C.3     1  UNL1        0.0071
     36 C          67.5619   94.6368    8.8124 C.3     1  UNL1        0.0175
     37 C          67.2398   95.9526    8.1683 C.3     1  UNL1        0.0686
     38 N          66.2094   96.8548    8.7801 N.3     1  UNL1       -0.2975
     39 C          65.5011   96.4413   10.0360 C.3     1  UNL1        0.0686
     40 C          65.8233   95.1255   10.6801 C.3     1  UNL1        0.0175
     41 H          65.4904   97.0035    8.0719 H       1  UNL1        0.1232
@<TRIPOS>BOND
     1    16    15    1
     2    16    17    1
     3    17    18    1
     4    18    14    1
     5    14     8    1
     6     8     9   ar
     7     9    10   ar
     8    10    11   ar
     9    11    12   ar
    10    12     1    1
    11     1     2   ar
    12     2     3   ar
    13     3    23    1
    14    23    24    1
    15    24    25   am
    16    25    26    2
    17    25    28    1
    18    28    29   ar
    19    29    30   ar
    20    30    31   ar
    21    31    32   ar
    22    32    34    1
    23    34    35    1
    24    35    36    1
    25    36    37    1
    26    37    38    1
    27    38    39    1
    28    39    40    1
    29    32    33   ar
    30     3     4   ar
    31     4     5   ar
    32     5     6   ar
    33     6     7    1
    34    12    13   ar
    35    18    19    1
    36    19    20    1
    37    20    21    1
    38    21    16    1
    39    13     8   ar
    40     6     1   ar
    41    33    28   ar
    42    40    35    1
    43    24    27    1
    44    38    41    1
    45    21    22    1
@<TRIPOS>MOLECULE
*****
 41 45 0 0 0
SMALL
GASTEIGER

@<TRIPOS>ATOM
      1 C          62.8149   83.1484   11.7352 C.ar    1  UNL1        0.0272
      2 C          62.7908   83.7460   13.1108 C.ar    1  UNL1       -0.0004
      3 C          62.9270   82.8621   14.3150 C.ar    1  UNL1       -0.0024
      4 C          63.0873   81.3806   14.1436 C.ar    1  UNL1       -0.0003
      5 C          63.1114   80.7830   12.7680 C.ar    1  UNL1        0.0294
      6 C          62.9752   81.6669   11.5638 C.ar    1  UNL1        0.1401
      7 F          62.9993   81.0693   10.1882 F       1  UNL1       -0.2042
      8 C          61.5076   86.0020    9.3066 C.ar    1  UNL1       -0.0061
      9 C          62.4063   85.8003    8.1226 C.ar    1  UNL1       -0.0029
     10 C          63.4412   84.7147    8.1428 C.ar    1  UNL1       -0.0003
     11 C          63.5774   83.8307    9.3471 C.ar    1  UNL1        0.0001
     12 C          62.6787   84.0324   10.5310 C.ar    1  UNL1        0.0019
     13 C          61.6438   85.1180   10.5108 C.ar    1  UNL1       -0.0028
     14 C          60.4727   87.0876    9.2864 C.3     1  UNL1        0.0992
     15 C          63.2806   91.3248   10.3645 C.3     1  UNL1        0.0186
     16 C          62.0857   90.4567   10.6270 C.3     1  UNL1        0.0703
     17 C          61.8766   89.2062    9.8255 C.3     1  UNL1        0.0882
     18 N          60.6818   88.3382   10.0880 N.3     1  UNL1       -0.2666
     19 C          59.6961   88.7206   11.1520 C.3     1  UNL1        0.0897
     20 C          59.9053   89.9711   11.9535 C.3     1  UNL1        0.0861
     21 N          61.1001   90.8391   11.6910 N.3     1  UNL1       -0.2963
     22 H          61.6199   90.8973   12.5667 H       1  UNL1        0.1233
     23 C          62.9029   83.4597   15.6906 C.3     1  UNL1        0.1166
     24 N          62.7762   84.9445   15.8612 N.am    1  UNL1       -0.2969
     25 C          63.9161   85.8430   15.4824 C.2     1  UNL1        0.2461
     26 O          65.1827   85.2565   14.9330 O.2     1  UNL1       -0.2701
     27 H          61.9449   85.3294   16.2217 H       1  UNL1        0.1501
     28 C          63.7893   87.3279   15.6530 C.ar    1  UNL1        0.0530
     29 C          63.1648   87.8894   16.8957 C.ar    1  UNL1        0.0045
     30 C          63.0380   89.3744   17.0663 C.ar    1  UNL1       -0.0002
     31 C          63.5359   90.2976   15.9941 C.ar    1  UNL1       -0.0043
     32 C          64.1605   89.7360   14.7513 C.ar    1  UNL1       -0.0220
     33 C          64.2872   88.2512   14.5807 C.ar    1  UNL1        0.0002
     34 C          64.6584   90.6593   13.6790 C.3     1  UNL1        0.0264
     35 C          65.7629   91.6292   13.9779 C.3     1  UNL1        0.0071
     36 C          66.8598   91.2475   14.9272 C.3     1  UNL1        0.0175
     37 C          67.9643   92.2175   15.2260 C.3     1  UNL1        0.0686
     38 N          67.9719   93.5691   14.5756 N.3     1  UNL1       -0.2975
     39 C          66.8750   93.9508   13.6263 C.3     1  UNL1        0.0686
     40 C          65.7705   92.9809   13.3275 C.3     1  UNL1        0.0175
     41 H          68.8478   93.6419   14.0580 H       1  UNL1        0.1232
@<TRIPOS>BOND
     1    16    15    1
     2    16    17    1
     3    17    18    1
     4    18    14    1
     5    14     8    1
     6     8     9   ar
     7     9    10   ar
     8    10    11   ar
     9    11    12   ar
    10    12     1    1
    11     1     2   ar
    12     2     3   ar
    13     3    23    1
    14    23    24    1
    15    24    25   am
    16    25    26    2
    17    25    28    1
    18    28    29   ar
    19    29    30   ar
    20    30    31   ar
    21    31    32   ar
    22    32    34    1
    23    34    35    1
    24    35    36    1
    25    36    37    1
    26    37    38    1
    27    38    39    1
    28    39    40    1
    29    32    33   ar
    30     3     4   ar
    31     4     5   ar
    32     5     6   ar
    33     6     7    1
    34    12    13   ar
    35    18    19    1
    36    19    20    1
    37    20    21    1
    38    21    16    1
    39    13     8   ar
    40     6     1   ar
    41    33    28   ar
    42    40    35    1
    43    24    27    1
    44    38    41    1
    45    21    22    1
@<TRIPOS>MOLECULE
*****
 41 45 0 0 0
SMALL
GASTEIGER

@<TRIPOS>ATOM
      1 C          63.7039   88.8953   15.0605 C.ar    1  UNL1        0.0272
      2 C          64.0281   87.4416   14.8826 C.ar    1  UNL1       -0.0004
      3 C          63.8599   86.4898   16.0297 C.ar    1  UNL1       -0.0024
      4 C          63.3674   86.9918   17.3546 C.ar    1  UNL1       -0.0003
      5 C          63.0432   88.4455   17.5325 C.ar    1  UNL1        0.0294
      6 C          63.2114   89.3972   16.3854 C.ar    1  UNL1        0.1401
      7 F          62.8872   90.8509   16.5633 F       1  UNL1       -0.2042
      8 C          65.0701   91.8871   12.8396 C.ar    1  UNL1       -0.0061
      9 C          64.2088   91.7506   11.6191 C.ar    1  UNL1       -0.0029
     10 C          63.1792   90.6622   11.5458 C.ar    1  UNL1       -0.0003
     11 C          63.0109   89.7105   12.6929 C.ar    1  UNL1        0.0001
     12 C          63.8722   89.8471   13.9133 C.ar    1  UNL1        0.0019
     13 C          64.9018   90.9354   13.9867 C.ar    1  UNL1       -0.0028
     14 C          66.0998   92.9755   12.9129 C.3     1  UNL1        0.0992
     15 C          68.8929   92.3372    8.5781 C.3     1  UNL1        0.0186
     16 C          68.0855   93.2175    9.4854 C.3     1  UNL1        0.0703
     17 C          67.4964   92.6564   10.7455 C.3     1  UNL1        0.0882
     18 N          66.6889   93.5367   11.6528 N.3     1  UNL1       -0.2666
     19 C          66.4707   94.9781   11.2999 C.3     1  UNL1        0.0897
     20 C          67.0599   95.5393   10.0398 C.3     1  UNL1        0.0861
     21 N          67.8673   94.6589    9.1325 N.3     1  UNL1       -0.2963
     22 H          68.7903   95.0857    9.0531 H       1  UNL1        0.1233
     23 C          64.1841   85.0361   15.8519 C.3     1  UNL1        0.1166
     24 N          64.3906   84.4767   14.4755 N.am    1  UNL1       -0.2969
     25 C          63.2389   84.3968   13.5178 C.2     1  UNL1        0.2461
     26 O          61.8807   84.8764   13.9364 O.2     1  UNL1       -0.2701
     27 H          65.2820   84.1619   14.2008 H       1  UNL1        0.1501
     28 C          63.4455   83.8373   12.1414 C.ar    1  UNL1        0.0530
     29 C          63.9954   82.4524   11.9695 C.ar    1  UNL1        0.0045
     30 C          64.2020   81.8929   10.5931 C.ar    1  UNL1       -0.0002
     31 C          63.8586   82.7185    9.3887 C.ar    1  UNL1       -0.0043
     32 C          63.3087   84.1034    9.5606 C.ar    1  UNL1       -0.0220
     33 C          63.1022   84.6628   10.9370 C.ar    1  UNL1        0.0002
     34 C          62.9654   84.9290    8.3562 C.3     1  UNL1        0.0264
     35 C          61.8918   85.9729    8.4437 C.3     1  UNL1        0.0071
     36 C          60.6119   85.7983    7.6813 C.3     1  UNL1        0.0175
     37 C          59.5385   86.8423    7.7688 C.3     1  UNL1        0.0686
     38 N          59.7448   88.0609    8.6188 N.3     1  UNL1       -0.2975
     39 C          61.0247   88.2355    9.3812 C.3     1  UNL1        0.0686
     40 C          62.0982   87.1915    9.2937 C.3     1  UNL1        0.0175
     41 H          58.9897   88.0730    9.3044 H       1  UNL1        0.1232
@<TRIPOS>BOND
     1    16    15    1
     2    16    17    1
     3    17    18    1
     4    18    14    1
     5    14     8    1
     6     8     9   ar
     7     9    10   ar
     8    10    11   ar
     9    11    12   ar
    10    12     1    1
    11     1     2   ar
    12     2     3   ar
    13     3    23    1
    14    23    24    1
    15    24    25   am
    16    25    26    2
    17    25    28    1
    18    28    29   ar
    19    29    30   ar
    20    30    31   ar
    21    31    32   ar
    22    32    34    1
    23    34    35    1
    24    35    36    1
    25    36    37    1
    26    37    38    1
    27    38    39    1
    28    39    40    1
    29    32    33   ar
    30     3     4   ar
    31     4     5   ar
    32     5     6   ar
    33     6     7    1
    34    12    13   ar
    35    18    19    1
    36    19    20    1
    37    20    21    1
    38    21    16    1
    39    13     8   ar
    40     6     1   ar
    41    33    28   ar
    42    40    35    1
    43    24    27    1
    44    38    41    1
    45    21    22    1
@<TRIPOS>MOLECULE
*****
 41 45 0 0 0
SMALL
GASTEIGER

@<TRIPOS>ATOM
      1 C          63.2059   84.8822   13.7743 C.ar    1  UNL1        0.0272
      2 C          63.4178   86.2914   14.2425 C.ar    1  UNL1       -0.0004
      3 C          63.2152   86.6402   15.6872 C.ar    1  UNL1       -0.0024
      4 C          62.8008   85.5798   16.6638 C.ar    1  UNL1       -0.0003
      5 C          62.5889   84.1706   16.1956 C.ar    1  UNL1        0.0294
      6 C          62.7914   83.8218   14.7508 C.ar    1  UNL1        0.1401
      7 F          62.5796   82.4125   14.2826 F       1  UNL1       -0.2042
      8 C          62.8984   84.9626    9.8184 C.ar    1  UNL1       -0.0061
      9 C          63.8136   83.8360    9.4399 C.ar    1  UNL1       -0.0029
     10 C          64.5262   83.0581   10.5063 C.ar    1  UNL1       -0.0003
     11 C          64.3237   83.4069   11.9511 C.ar    1  UNL1        0.0001
     12 C          63.4085   84.5334   12.3295 C.ar    1  UNL1        0.0019
     13 C          62.6959   85.3113   11.2632 C.ar    1  UNL1       -0.0028
     14 C          62.1858   85.7405    8.7521 C.3     1  UNL1        0.0992
     15 C          62.6420   90.4498   10.9003 C.3     1  UNL1        0.0186
     16 C          61.8313   89.4408   10.1422 C.3     1  UNL1        0.0703
     17 C          62.4139   88.0952    9.8262 C.3     1  UNL1        0.0882
     18 N          61.6032   87.0862    9.0681 N.3     1  UNL1       -0.2666
     19 C          60.2099   87.4228    8.6260 C.3     1  UNL1        0.0897
     20 C          59.6274   88.7684    8.9421 C.3     1  UNL1        0.0861
     21 N          60.4380   89.7774    9.7001 N.3     1  UNL1       -0.2963
     22 H          59.9096   90.0074   10.5417 H       1  UNL1        0.1233
     23 C          63.4271   88.0494   16.1554 C.3     1  UNL1        0.1166
     24 N          64.2891   88.9829   15.3583 N.am    1  UNL1       -0.2969
     25 C          64.2233   90.4608   15.6065 C.2     1  UNL1        0.2461
     26 O          63.2954   91.0051   16.6518 O.2     1  UNL1       -0.2701
     27 H          64.8981   88.6257   14.6722 H       1  UNL1        0.1501
     28 C          65.0853   91.3943   14.8094 C.ar    1  UNL1        0.0530
     29 C          66.2254   92.1110   15.4702 C.ar    1  UNL1        0.0045
     30 C          67.0874   93.0445   14.6730 C.ar    1  UNL1       -0.0002
     31 C          66.8094   93.2614   13.2150 C.ar    1  UNL1       -0.0043
     32 C          65.6693   92.5447   12.5542 C.ar    1  UNL1       -0.0220
     33 C          64.8073   91.6112   13.3514 C.ar    1  UNL1        0.0002
     34 C          65.3913   92.7615   11.0962 C.3     1  UNL1        0.0264
     35 C          66.1746   93.7839   10.3273 C.3     1  UNL1        0.0071
     36 C          67.3616   93.3625    9.5129 C.3     1  UNL1        0.0175
     37 C          68.1447   94.3849    8.7440 C.3     1  UNL1        0.0686
     38 N          67.7409   95.8288    8.7896 N.3     1  UNL1       -0.2975
     39 C          66.5540   96.2503    9.6040 C.3     1  UNL1        0.0686
     40 C          65.7708   95.2279   10.3729 C.3     1  UNL1        0.0175
     41 H          67.5540   96.1128    7.8279 H       1  UNL1        0.1232
@<TRIPOS>BOND
     1    16    15    1
     2    16    17    1
     3    17    18    1
     4    18    14    1
     5    14     8    1
     6     8     9   ar
     7     9    10   ar
     8    10    11   ar
     9    11    12   ar
    10    12     1    1
    11     1     2   ar
    12     2     3   ar
    13     3    23    1
    14    23    24    1
    15    24    25   am
    16    25    26    2
    17    25    28    1
    18    28    29   ar
    19    29    30   ar
    20    30    31   ar
    21    31    32   ar
    22    32    34    1
    23    34    35    1
    24    35    36    1
    25    36    37    1
    26    37    38    1
    27    38    39    1
    28    39    40    1
    29    32    33   ar
    30     3     4   ar
    31     4     5   ar
    32     5     6   ar
    33     6     7    1
    34    12    13   ar
    35    18    19    1
    36    19    20    1
    37    20    21    1
    38    21    16    1
    39    13     8   ar
    40     6     1   ar
    41    33    28   ar
    42    40    35    1
    43    24    27    1
    44    38    41    1
    45    21    22    1
@<TRIPOS>MOLECULE
*****
 41 45 0 0 0
SMALL
GASTEIGER

@<TRIPOS>ATOM
      1 C          62.7504   83.5954   11.9950 C.ar    1  UNL1        0.0272
      2 C          62.7172   84.3447   13.2940 C.ar    1  UNL1       -0.0004
      3 C          62.7581   83.5959   14.5930 C.ar    1  UNL1       -0.0024
      4 C          62.8323   82.0977   14.5930 C.ar    1  UNL1       -0.0003
      5 C          62.8655   81.3484   13.2940 C.ar    1  UNL1        0.0294
      6 C          62.8245   82.0972   11.9950 C.ar    1  UNL1        0.1401
      7 F          62.8577   81.3479   10.6960 F       1  UNL1       -0.2042
      8 C          61.6522   86.1763    9.1873 C.ar    1  UNL1       -0.0061
      9 C          62.6275   85.8421    8.0978 C.ar    1  UNL1       -0.0029
     10 C          63.6438   84.7589    8.3073 C.ar    1  UNL1       -0.0003
     11 C          63.6847   84.0100    9.6064 C.ar    1  UNL1        0.0001
     12 C          62.7094   84.3443   10.6959 C.ar    1  UNL1        0.0019
     13 C          61.6932   85.4275   10.4863 C.ar    1  UNL1       -0.0028
     14 C          60.6359   87.2595    8.9778 C.3     1  UNL1        0.0992
     15 C          58.4195   89.0928   13.3053 C.3     1  UNL1        0.0186
     16 C          59.3727   89.2663   12.1601 C.3     1  UNL1        0.0703
     17 C          59.5277   88.1762   11.1416 C.3     1  UNL1        0.0882
     18 N          60.4809   88.3497    9.9964 N.3     1  UNL1       -0.2666
     19 C          61.2790   89.6134    9.8698 C.3     1  UNL1        0.0897
     20 C          61.1240   90.7035   10.8884 C.3     1  UNL1        0.0861
     21 N          60.1708   90.5300   12.0336 N.3     1  UNL1       -0.2963
     22 H          59.5009   91.2971   11.9778 H       1  UNL1        0.1233
     23 C          62.7250   84.3452   15.8920 C.3     1  UNL1        0.1166
     24 N          62.7361   85.8451   15.8931 N.am    1  UNL1       -0.2969
     25 C          63.9966   86.5860   15.5580 C.2     1  UNL1        0.2461
     26 O          65.2458   85.8270   15.2217 O.2     1  UNL1       -0.2701
     27 H          61.9162   86.3433   16.1138 H       1  UNL1        0.1501
     28 C          64.0077   88.0860   15.5591 C.ar    1  UNL1        0.0530
     29 C          62.9628   88.8432   16.3239 C.ar    1  UNL1        0.0045
     30 C          62.9739   90.3432   16.3250 C.ar    1  UNL1       -0.0002
     31 C          64.0299   91.0860   15.5613 C.ar    1  UNL1       -0.0043
     32 C          65.0748   90.3287   14.7965 C.ar    1  UNL1       -0.0220
     33 C          65.0637   88.8288   14.7954 C.ar    1  UNL1        0.0002
     34 C          66.1308   91.0715   14.0329 C.3     1  UNL1        0.0264
     35 C          65.7464   91.9351   12.8682 C.3     1  UNL1        0.0071
     36 C          66.4199   93.2594   12.6620 C.3     1  UNL1        0.0175
     37 C          66.0355   94.1230   11.4973 C.3     1  UNL1        0.0686
     38 N          64.9776   93.6623   10.5389 N.3     1  UNL1       -0.2975
     39 C          64.3041   92.3379   10.7451 C.3     1  UNL1        0.0686
     40 C          64.6885   91.4744   11.9097 C.3     1  UNL1        0.0175
     41 H          65.4098   93.6322    9.6155 H       1  UNL1        0.1232
@<TRIPOS>BOND
     1    16    15    1
     2    16    17    1
     3    17    18    1
     4    18    14    1
     5    14     8    1
     6     8     9   ar
     7     9    10   ar
     8    10    11   ar
     9    11    12   ar
    10    12     1    1
    11     1     2   ar
    12     2     3   ar
    13     3    23    1
    14    23    24    1
    15    24    25   am
    16    25    26    2
    17    25    28    1
    18    28    29   ar
    19    29    30   ar
    20    30    31   ar
    21    31    32   ar
    22    32    34    1
    23    34    35    1
    24    35    36    1
    25    36    37    1
    26    37    38    1
    27    38    39    1
    28    39    40    1
    29    32    33   ar
    30     3     4   ar
    31     4     5   ar
    32     5     6   ar
    33     6     7    1
    34    12    13   ar
    35    18    19    1
    36    19    20    1
    37    20    21    1
    38    21    16    1
    39    13     8   ar
    40     6     1   ar
    41    33    28   ar
    42    40    35    1
    43    24    27    1
    44    38    41    1
    45    21    22    1
@<TRIPOS>MOLECULE
*****
 41 45 0 0 0
SMALL
GASTEIGER

@<TRIPOS>ATOM
      1 C          61.7614   89.0564   10.2175 C.ar    1  UNL1        0.0272
      2 C          61.0118   89.6648    9.0695 C.ar    1  UNL1       -0.0004
      3 C          60.0903   88.8182    8.2425 C.ar    1  UNL1       -0.0024
      4 C          59.9183   87.3631    8.5635 C.ar    1  UNL1       -0.0003
      5 C          60.6679   86.7547    9.7115 C.ar    1  UNL1        0.0294
      6 C          61.5894   87.6013   10.5385 C.ar    1  UNL1        0.1401
      7 F          62.3390   86.9928   11.6865 F       1  UNL1       -0.2042
      8 C          63.6915   90.5361   13.3537 C.ar    1  UNL1       -0.0061
      9 C          64.5261   91.5964   12.6985 C.ar    1  UNL1       -0.0029
     10 C          64.4391   91.8101   11.2164 C.ar    1  UNL1       -0.0003
     11 C          63.5175   90.9633   10.3893 C.ar    1  UNL1        0.0001
     12 C          62.6830   89.9031   11.0445 C.ar    1  UNL1        0.0019
     13 C          62.7699   89.6894   12.5267 C.ar    1  UNL1       -0.0028
     14 C          63.7784   90.3224   14.8358 C.3     1  UNL1        0.0992
     15 C          64.8462   85.2483   14.4997 C.3     1  UNL1        0.0186
     16 C          64.2214   86.3985   15.2322 C.3     1  UNL1        0.0703
     17 C          64.3123   87.7853   14.6678 C.3     1  UNL1        0.0882
     18 N          63.6875   88.9356   15.4003 N.3     1  UNL1       -0.2666
     19 C          62.9719   88.6991   16.6971 C.3     1  UNL1        0.0897
     20 C          62.8810   87.3123   17.2615 C.3     1  UNL1        0.0861
     21 N          63.5058   86.1620   16.5290 N.3     1  UNL1       -0.2963
     22 H          62.7585   85.4953   16.3356 H       1  UNL1        0.1233
     23 C          59.3407   89.4267    7.0945 C.3     1  UNL1        0.1166
     24 N          60.0893   90.0997    5.9825 N.am    1  UNL1       -0.2969
     25 C          59.4054   91.1306    5.1343 C.2     1  UNL1        0.2461
     26 O          57.9728   91.4885    5.3982 O.2     1  UNL1       -0.2701
     27 H          61.0296   89.8648    5.8093 H       1  UNL1        0.1501
     28 C          60.1540   91.8036    4.0222 C.ar    1  UNL1        0.0530
     29 C          61.6312   91.5889    3.8751 C.ar    1  UNL1        0.0045
     30 C          62.3799   92.2619    2.7630 C.ar    1  UNL1       -0.0002
     31 C          61.6513   93.1497    1.7982 C.ar    1  UNL1       -0.0043
     32 C          60.1740   93.3645    1.9454 C.ar    1  UNL1       -0.0220
     33 C          59.4254   92.6914    3.0574 C.ar    1  UNL1        0.0002
     34 C          59.4454   94.2523    0.9805 C.3     1  UNL1        0.0264
     35 C          59.0216   93.7191   -0.3560 C.3     1  UNL1        0.0071
     36 C          57.6670   93.0962   -0.5198 C.3     1  UNL1        0.0175
     37 C          57.2433   92.5631   -1.8563 C.3     1  UNL1        0.0686
     38 N          58.1743   92.6529   -3.0290 N.3     1  UNL1       -0.2975
     39 C          59.5289   93.2758   -2.8652 C.3     1  UNL1        0.0686
     40 C          59.9526   93.8089   -1.5287 C.3     1  UNL1        0.0175
     41 H          57.6894   93.1878   -3.7496 H       1  UNL1        0.1232
@<TRIPOS>BOND
     1    16    15    1
     2    16    17    1
     3    17    18    1
     4    18    14    1
     5    14     8    1
     6     8     9   ar
     7     9    10   ar
     8    10    11   ar
     9    11    12   ar
    10    12     1    1
    11     1     2   ar
    12     2     3   ar
    13     3    23    1
    14    23    24    1
    15    24    25   am
    16    25    26    2
    17    25    28    1
    18    28    29   ar
    19    29    30   ar
    20    30    31   ar
    21    31    32   ar
    22    32    34    1
    23    34    35    1
    24    35    36    1
    25    36    37    1
    26    37    38    1
    27    38    39    1
    28    39    40    1
    29    32    33   ar
    30     3     4   ar
    31     4     5   ar
    32     5     6   ar
    33     6     7    1
    34    12    13   ar
    35    18    19    1
    36    19    20    1
    37    20    21    1
    38    21    16    1
    39    13     8   ar
    40     6     1   ar
    41    33    28   ar
    42    40    35    1
    43    24    27    1
    44    38    41    1
    45    21    22    1
@<TRIPOS>MOLECULE
*****
 41 45 0 0 0
SMALL
GASTEIGER

@<TRIPOS>ATOM
      1 C          61.4589   87.2544    9.7066 C.ar    1  UNL1        0.0272
      2 C          61.7744   88.0816   10.9174 C.ar    1  UNL1       -0.0004
      3 C          61.0071   89.3424   11.1850 C.ar    1  UNL1       -0.0024
      4 C          59.9244   89.7759   10.2418 C.ar    1  UNL1       -0.0003
      5 C          59.6089   88.9487    9.0309 C.ar    1  UNL1        0.0294
      6 C          60.3762   87.6879    8.7633 C.ar    1  UNL1        0.1401
      7 F          60.0608   86.8606    7.5525 F       1  UNL1       -0.2042
      8 C          63.6904   84.0259   10.2962 C.ar    1  UNL1       -0.0061
      9 C          63.7609   83.4719    8.9039 C.ar    1  UNL1       -0.0029
     10 C          63.0641   84.1787    7.7793 C.ar    1  UNL1       -0.0003
     11 C          62.2968   85.4396    8.0469 C.ar    1  UNL1        0.0001
     12 C          62.2263   85.9935    9.4390 C.ar    1  UNL1        0.0019
     13 C          62.9231   85.2867   10.5637 C.ar    1  UNL1       -0.0028
     14 C          64.3872   83.3190   11.4208 C.3     1  UNL1        0.0992
     15 C          60.7563   80.7754   14.1313 C.3     1  UNL1        0.0186
     16 C          61.8503   81.7996   14.0677 C.3     1  UNL1        0.0703
     17 C          62.5717   82.0472   12.7761 C.3     1  UNL1        0.0882
     18 N          63.6657   83.0715   12.7125 N.3     1  UNL1       -0.2666
     19 C          64.0384   83.8481   13.9404 C.3     1  UNL1        0.0897
     20 C          63.3170   83.6005   15.2320 C.3     1  UNL1        0.0861
     21 N          62.2229   82.5763   15.2956 N.3     1  UNL1       -0.2963
     22 H          61.3810   83.0634   15.6027 H       1  UNL1        0.1233
     23 C          61.3225   90.1697   12.3958 C.3     1  UNL1        0.1166
     24 N          62.6664   90.8226   12.5288 N.am    1  UNL1       -0.2969
     25 C          63.4442   90.6849   13.8039 C.2     1  UNL1        0.2461
     26 O          62.8783   89.8943   14.9461 O.2     1  UNL1       -0.2701
     27 H          63.0379   91.3415   11.7792 H       1  UNL1        0.1501
     28 C          64.7882   91.3378   13.9369 C.ar    1  UNL1        0.0530
     29 C          65.3577   91.6117   15.2972 C.ar    1  UNL1        0.0045
     30 C          66.7016   92.2647   15.4301 C.ar    1  UNL1       -0.0002
     31 C          67.4760   92.6437   14.2027 C.ar    1  UNL1       -0.0043
     32 C          66.9064   92.3697   12.8423 C.ar    1  UNL1       -0.0220
     33 C          65.5625   91.7168   12.7094 C.ar    1  UNL1        0.0002
     34 C          67.6808   92.7487   11.6148 C.3     1  UNL1        0.0264
     35 C          67.1518   93.8055   10.6909 C.3     1  UNL1        0.0071
     36 C          66.1293   94.7872   11.1815 C.3     1  UNL1        0.0175
     37 C          65.6005   95.8439   10.2576 C.3     1  UNL1        0.0686
     38 N          66.0941   95.9189    8.8431 N.3     1  UNL1       -0.2975
     39 C          67.1166   94.9373    8.3525 C.3     1  UNL1        0.0686
     40 C          67.6455   93.8805    9.2764 C.3     1  UNL1        0.0175
     41 H          66.4957   96.8485    8.7203 H       1  UNL1        0.1232
@<TRIPOS>BOND
     1    16    15    1
     2    16    17    1
     3    17    18    1
     4    18    14    1
     5    14     8    1
     6     8     9   ar
     7     9    10   ar
     8    10    11   ar
     9    11    12   ar
    10    12     1    1
    11     1     2   ar
    12     2     3   ar
    13     3    23    1
    14    23    24    1
    15    24    25   am
    16    25    26    2
    17    25    28    1
    18    28    29   ar
    19    29    30   ar
    20    30    31   ar
    21    31    32   ar
    22    32    34    1
    23    34    35    1
    24    35    36    1
    25    36    37    1
    26    37    38    1
    27    38    39    1
    28    39    40    1
    29    32    33   ar
    30     3     4   ar
    31     4     5   ar
    32     5     6   ar
    33     6     7    1
    34    12    13   ar
    35    18    19    1
    36    19    20    1
    37    20    21    1
    38    21    16    1
    39    13     8   ar
    40     6     1   ar
    41    33    28   ar
    42    40    35    1
    43    24    27    1
    44    38    41    1
    45    21    22    1
@<TRIPOS>MOLECULE
*****
 41 45 0 0 0
SMALL
GASTEIGER

@<TRIPOS>ATOM
      1 C          61.9310   88.9307   10.3499 C.ar    1  UNL1        0.0272
      2 C          61.0679   89.5100    9.2685 C.ar    1  UNL1       -0.0004
      3 C          60.1706   88.6157    8.4653 C.ar    1  UNL1       -0.0024
      4 C          60.1365   87.1422    8.7435 C.ar    1  UNL1       -0.0003
      5 C          60.9996   86.5629    9.8249 C.ar    1  UNL1        0.0294
      6 C          61.8969   87.4572   10.6281 C.ar    1  UNL1        0.1401
      7 F          62.7600   86.8779   11.7095 F       1  UNL1       -0.2042
      8 C          63.9646   90.4326   13.4091 C.ar    1  UNL1       -0.0061
      9 C          64.6228   91.6137   12.7595 C.ar    1  UNL1       -0.0029
     10 C          64.3838   91.9004   11.3067 C.ar    1  UNL1       -0.0003
     11 C          63.4865   91.0060   10.5035 C.ar    1  UNL1        0.0001
     12 C          62.8283   89.8251   11.1531 C.ar    1  UNL1        0.0019
     13 C          63.0673   89.5384   12.6059 C.ar    1  UNL1       -0.0028
     14 C          64.2036   90.1460   14.8619 C.3     1  UNL1        0.0992
     15 C          64.6588   84.9770   14.5881 C.3     1  UNL1        0.0186
     16 C          64.1334   86.2000   15.2797 C.3     1  UNL1        0.0703
     17 C          64.4312   87.5615   14.7251 C.3     1  UNL1        0.0882
     18 N          63.9057   88.7844   15.4166 N.3     1  UNL1       -0.2666
     19 C          63.0825   88.6459   16.6628 C.3     1  UNL1        0.0897
     20 C          62.7847   87.2844   17.2174 C.3     1  UNL1        0.0861
     21 N          63.3101   86.0615   16.5259 N.3     1  UNL1       -0.2963
     22 H          62.5009   85.4904   16.2822 H       1  UNL1        0.1233
     23 C          59.3075   89.1950    7.3838 C.3     1  UNL1        0.1166
     24 N          59.9317   89.9633    6.2569 N.am    1  UNL1       -0.2969
     25 C          59.0813   90.8369    5.3831 C.2     1  UNL1        0.2461
     26 O          57.6066   90.9423    5.6364 O.2     1  UNL1       -0.2701
     27 H          60.8996   89.8941    6.0907 H       1  UNL1        0.1501
     28 C          59.7056   91.6052    4.2561 C.ar    1  UNL1        0.0530
     29 C          58.8400   92.3752    3.3033 C.ar    1  UNL1        0.0045
     30 C          59.4643   93.1435    2.1763 C.ar    1  UNL1       -0.0002
     31 C          60.9542   93.1418    2.0022 C.ar    1  UNL1       -0.0043
     32 C          61.8197   92.3718    2.9551 C.ar    1  UNL1       -0.0220
     33 C          61.1954   91.6035    4.0820 C.ar    1  UNL1        0.0002
     34 C          63.3096   92.3701    2.7810 C.3     1  UNL1        0.0264
     35 C          63.9720   93.4494    1.9770 C.3     1  UNL1        0.0071
     36 C          64.3327   94.7532    2.6250 C.3     1  UNL1        0.0175
     37 C          64.9950   95.8324    1.8210 C.3     1  UNL1        0.0686
     38 N          65.2966   95.6078    0.3689 N.3     1  UNL1       -0.2975
     39 C          64.9359   94.3041   -0.2792 C.3     1  UNL1        0.0686
     40 C          64.2736   93.2248    0.5249 C.3     1  UNL1        0.0175
     41 H          66.3037   95.7241    0.2559 H       1  UNL1        0.1232
@<TRIPOS>BOND
     1    16    15    1
     2    16    17    1
     3    17    18    1
     4    18    14    1
     5    14     8    1
     6     8     9   ar
     7     9    10   ar
     8    10    11   ar
     9    11    12   ar
    10    12     1    1
    11     1     2   ar
    12     2     3   ar
    13     3    23    1
    14    23    24    1
    15    24    25   am
    16    25    26    2
    17    25    28    1
    18    28    29   ar
    19    29    30   ar
    20    30    31   ar
    21    31    32   ar
    22    32    34    1
    23    34    35    1
    24    35    36    1
    25    36    37    1
    26    37    38    1
    27    38    39    1
    28    39    40    1
    29    32    33   ar
    30     3     4   ar
    31     4     5   ar
    32     5     6   ar
    33     6     7    1
    34    12    13   ar
    35    18    19    1
    36    19    20    1
    37    20    21    1
    38    21    16    1
    39    13     8   ar
    40     6     1   ar
    41    33    28   ar
    42    40    35    1
    43    24    27    1
    44    38    41    1
    45    21    22    1
@<TRIPOS>MOLECULE
*****
 41 45 0 0 0
SMALL
GASTEIGER

@<TRIPOS>ATOM
      1 C          63.5794   89.0621   14.8510 C.ar    1  UNL1        0.0272
      2 C          63.9636   87.6184   14.7167 C.ar    1  UNL1       -0.0004
      3 C          63.9150   86.7150   15.9131 C.ar    1  UNL1       -0.0024
      4 C          63.4822   87.2553   17.2438 C.ar    1  UNL1       -0.0003
      5 C          63.0980   88.6990   17.3781 C.ar    1  UNL1        0.0294
      6 C          63.1466   89.6024   16.1817 C.ar    1  UNL1        0.1401
      7 F          62.7624   91.0462   16.3160 F       1  UNL1       -0.2042
      8 C          64.7907   91.8630   12.3137 C.ar    1  UNL1       -0.0061
      9 C          63.7252   91.7725   11.2617 C.ar    1  UNL1       -0.0029
     10 C          62.6112   90.7785   11.4061 C.ar    1  UNL1       -0.0003
     11 C          62.5626   89.8751   12.6026 C.ar    1  UNL1        0.0001
     12 C          63.6280   89.9656   13.6545 C.ar    1  UNL1        0.0019
     13 C          64.7421   90.9596   13.5101 C.ar    1  UNL1       -0.0028
     14 C          65.9048   92.8570   12.1692 C.3     1  UNL1        0.0992
     15 C          68.7544   93.9397   16.3773 C.3     1  UNL1        0.0186
     16 C          68.5921   93.2303   15.0656 C.3     1  UNL1        0.0703
     17 C          67.3296   93.3983   14.2732 C.3     1  UNL1        0.0882
     18 N          67.1673   92.6889   12.9616 N.3     1  UNL1       -0.2666
     19 C          68.2675   91.8114   12.4424 C.3     1  UNL1        0.0897
     20 C          69.5299   91.6433   13.2348 C.3     1  UNL1        0.0861
     21 N          69.6922   92.3528   14.5464 N.3     1  UNL1       -0.2963
     22 H          70.5224   92.9395   14.4630 H       1  UNL1        0.1233
     23 C          64.2992   85.2713   15.7788 C.3     1  UNL1        0.1166
     24 N          64.4718   84.6645   14.4179 N.am    1  UNL1       -0.2969
     25 C          63.2764   84.4384   13.5405 C.2     1  UNL1        0.2461
     26 O          61.9084   84.8191   14.0240 O.2     1  UNL1       -0.2701
     27 H          65.3696   84.4147   14.1006 H       1  UNL1        0.1501
     28 C          63.4490   83.8317   12.1796 C.ar    1  UNL1        0.0530
     29 C          63.9323   82.4182   12.0444 C.ar    1  UNL1        0.0045
     30 C          64.1049   81.8114   10.6834 C.ar    1  UNL1       -0.0002
     31 C          63.7941   82.6182    9.4577 C.ar    1  UNL1       -0.0043
     32 C          63.3107   84.0318    9.5929 C.ar    1  UNL1       -0.0220
     33 C          63.1381   84.6385   10.9538 C.ar    1  UNL1        0.0002
     34 C          62.9999   84.8386    8.3672 C.3     1  UNL1        0.0264
     35 C          61.9149   85.8737    8.4058 C.3     1  UNL1        0.0071
     36 C          60.6342   85.6460    7.6588 C.3     1  UNL1        0.0175
     37 C          59.5493   86.6811    7.6974 C.3     1  UNL1        0.0686
     38 N          59.7450   87.9438    8.4831 N.3     1  UNL1       -0.2975
     39 C          61.0256   88.1714    9.2302 C.3     1  UNL1        0.0686
     40 C          62.1106   87.1363    9.1915 C.3     1  UNL1        0.0175
     41 H          58.9923   87.9825    9.1704 H       1  UNL1        0.1232
@<TRIPOS>BOND
     1    16    15    1
     2    16    17    1
     3    17    18    1
     4    18    14    1
     5    14     8    1
     6     8     9   ar
     7     9    10   ar
     8    10    11   ar
     9    11    12   ar
    10    12     1    1
    11     1     2   ar
    12     2     3   ar
    13     3    23    1
    14    23    24    1
    15    24    25   am
    16    25    26    2
    17    25    28    1
    18    28    29   ar
    19    29    30   ar
    20    30    31   ar
    21    31    32   ar
    22    32    34    1
    23    34    35    1
    24    35    36    1
    25    36    37    1
    26    37    38    1
    27    38    39    1
    28    39    40    1
    29    32    33   ar
    30     3     4   ar
    31     4     5   ar
    32     5     6   ar
    33     6     7    1
    34    12    13   ar
    35    18    19    1
    36    19    20    1
    37    20    21    1
    38    21    16    1
    39    13     8   ar
    40     6     1   ar
    41    33    28   ar
    42    40    35    1
    43    24    27    1
    44    38    41    1
    45    21    22    1
