@<TRIPOS>MOLECULE
*****
 40 43 0 0 0
SMALL
GASTEIGER

@<TRIPOS>ATOM
      1 C          60.2259   87.5644    9.0660 C.ar    1  UNL1        0.1690
      2 C          60.0927   88.8609    8.3235 C.ar    1  UNL1        0.1749
      3 C          60.8818   90.0597    8.7599 C.ar    1  UNL1        0.0776
      4 C          61.8040   89.9619    9.9388 C.ar    1  UNL1        0.1512
      5 O          62.5931   91.1606   10.3752 O.2     1  UNL1       -0.4530
      6 C          63.5153   91.0629   11.5542 C.ar    1  UNL1        0.1543
      7 C          64.3044   92.2616   11.9906 C.ar    1  UNL1        0.0747
      8 C          65.2266   92.1639   13.1696 C.ar    1  UNL1        0.1445
      9 C          65.3598   90.8674   13.9121 C.ar    1  UNL1        0.0677
     10 C          64.5707   89.6687   13.4757 C.ar    1  UNL1        0.1425
     11 O          64.7038   88.3722   14.2183 O.3     1  UNL1       -0.5052
     12 C          63.6485   89.7664   12.2968 C.ar    1  UNL1        0.1073
     13 C          62.8594   88.5677   11.8603 C.ar    1  UNL1        0.2042
     14 O          62.9926   87.2712   12.6029 O.2     1  UNL1       -0.2863
     15 C          61.9372   88.6654   10.6814 C.ar    1  UNL1        0.0731
     16 C          61.1482   87.4667   10.2450 C.ar    1  UNL1        0.0252
     17 C          66.2820   90.7697   15.0911 C.2     1  UNL1        0.0049
     18 C          67.0710   91.9684   15.5274 C.2     1  UNL1        0.0130
     19 C          66.9378   93.2649   14.7849 C.3     1  UNL1        0.1517
     20 C          67.1507   94.7006   14.4061 C.3     1  UNL1        0.0483
     21 C          67.9339   93.6657   15.8323 C.3     1  UNL1        0.0483
     22 O          66.0156   93.3626   13.6059 O.3     1  UNL1       -0.4783
     23 H          65.2799   88.3111   14.9547 H       1  UNL1        0.2922
     24 C          59.8618   85.5882    7.4193 C.3     1  UNL1        0.2526
     25 O          59.4369   86.3657    8.6297 O.3     1  UNL1       -0.4687
     26 O          59.1705   88.9587    7.1445 O.3     1  UNL1       -0.4723
     27 C          59.4255   89.9796    6.0755 C.3     1  UNL1        0.2056
     28 C          58.2824   90.7556    5.4916 C.3     1  UNL1        0.0473
     29 C          58.5518   91.9409    4.6127 C.3     1  UNL1        0.0038
     30 C          59.9507   92.2345    4.1575 C.3     1  UNL1        0.0005
     31 C          60.1810   93.0153    2.8976 C.3     1  UNL1        0.0059
     32 C          61.3149   92.6504    1.9860 C.3     1  UNL1        0.0417
     33 C          62.7274   92.7012    2.4884 C.2     1  UNL1        0.0503
     34 O          63.1935   91.7140    3.5170 O.co2   1  UNL1       -0.5492
     35 O          63.6737   93.7393    1.9621 O.co2   1  UNL1       -0.5492
     36 C          61.2813   86.1702   10.9876 C.3     1  UNL1        0.0550
     37 C          62.1138   85.0608   10.4164 C.2     1  UNL1       -0.0298
     38 C          62.8339   84.1157   11.3319 C.2     1  UNL1       -0.0475
     39 C          63.6664   83.0064   10.7608 C.3     1  UNL1        0.0260
     40 C          62.7215   84.2801   12.8187 C.3     1  UNL1        0.0260
@<TRIPOS>UNITY_ATOM_ATTR
34 1
charge -1
@<TRIPOS>BOND
     1    24    25    1
     2    25     1    1
     3     1     2   ar
     4     2    26    1
     5    26    27    1
     6    27    28    1
     7    28    29    1
     8    29    30    1
     9    30    31    1
    10    31    32    1
    11    32    33    1
    12    33    34   ar
    13    33    35   ar
    14     2     3   ar
    15     3     4   ar
    16     4     5   ar
    17     5     6   ar
    18     6     7   ar
    19     7     8   ar
    20     8     9   ar
    21     9    10   ar
    22    10    11    1
    23    10    12   ar
    24    12    13   ar
    25    13    14    2
    26    13    15   ar
    27    15    16   ar
    28    16    36    1
    29    36    37    1
    30    37    38    2
    31    38    39    1
    32    38    40    1
    33     9    17    1
    34    17    18    2
    35    18    19    1
    36    19    20    1
    37    19    21    1
    38    19    22    1
    39    16     1   ar
    40    15     4   ar
    41    12     6   ar
    42    22     8    1
    43    11    23    1
@<TRIPOS>MOLECULE
*****
 40 43 0 0 0
SMALL
GASTEIGER

@<TRIPOS>ATOM
      1 C          63.9750   91.0704   12.9751 C.ar    1  UNL1        0.1690
      2 C          64.6719   90.8685   14.2879 C.ar    1  UNL1        0.1749
      3 C          64.8201   89.4872   14.8538 C.ar    1  UNL1        0.0776
      4 C          64.2714   88.3079   14.1068 C.ar    1  UNL1        0.1512
      5 O          64.4195   86.9267   14.6727 O.2     1  UNL1       -0.4530
      6 C          63.8708   85.7472   13.9257 C.ar    1  UNL1        0.1543
      7 C          64.0190   84.3660   14.4916 C.ar    1  UNL1        0.0747
      8 C          63.4703   83.1866   13.7446 C.ar    1  UNL1        0.1445
      9 C          62.7734   83.3885   12.4317 C.ar    1  UNL1        0.0677
     10 C          62.6252   84.7698   11.8659 C.ar    1  UNL1        0.1425
     11 O          61.9284   84.9716   10.5530 O.3     1  UNL1       -0.5052
     12 C          63.1739   85.9491   12.6129 C.ar    1  UNL1        0.1073
     13 C          63.0258   87.3304   12.0470 C.ar    1  UNL1        0.2042
     14 O          62.3289   87.5323   10.7341 O.2     1  UNL1       -0.2863
     15 C          63.5745   88.5097   12.7940 C.ar    1  UNL1        0.0731
     16 C          63.4263   89.8909   12.2281 C.ar    1  UNL1        0.0252
     17 C          62.2247   82.2091   11.6848 C.2     1  UNL1        0.0049
     18 C          62.3728   80.8279   12.2506 C.2     1  UNL1        0.0130
     19 C          63.0697   80.6260   13.5635 C.3     1  UNL1        0.1517
     20 C          63.6454   79.9307   14.7614 C.3     1  UNL1        0.0483
     21 C          62.7210   79.2052   13.2325 C.3     1  UNL1        0.0483
     22 O          63.6184   81.8054   14.3105 O.3     1  UNL1       -0.4783
     23 H          61.5856   84.2349   10.0864 H       1  UNL1        0.2922
     24 C          64.6728   92.8807   11.2472 C.3     1  UNL1        0.2526
     25 O          63.8269   92.4516   12.4092 O.3     1  UNL1       -0.4687
     26 O          65.2206   92.0478   15.0349 O.3     1  UNL1       -0.4723
     27 C          66.6783   92.3872   14.9345 C.3     1  UNL1        0.2056
     28 C          67.5206   91.7661   13.8599 C.3     1  UNL1        0.0473
     29 C          67.5048   92.3348   12.4720 C.3     1  UNL1        0.0038
     30 C          68.3868   91.7468   11.4105 C.3     1  UNL1        0.0005
     31 C          68.0735   91.9785    9.9620 C.3     1  UNL1        0.0059
     32 C          68.5364   93.2350    9.2862 C.3     1  UNL1        0.0417
     33 C          67.6429   94.4393    9.2485 C.2     1  UNL1        0.0503
     34 O          67.3085   95.1650   10.5179 O.co2   1  UNL1       -0.5492
     35 O          67.0838   94.9177    7.9414 O.co2   1  UNL1       -0.5492
     36 C          62.7295   90.0928   10.9152 C.3     1  UNL1        0.0550
     37 C          61.4909   90.9361   10.8454 C.2     1  UNL1       -0.0298
     38 C          60.1912   90.4050   11.3735 C.2     1  UNL1       -0.0475
     39 C          58.9527   91.2482   11.3038 C.3     1  UNL1        0.0260
     40 C          60.1302   89.0306   11.9714 C.3     1  UNL1        0.0260
@<TRIPOS>UNITY_ATOM_ATTR
34 1
charge -1
@<TRIPOS>BOND
     1    24    25    1
     2    25     1    1
     3     1     2   ar
     4     2    26    1
     5    26    27    1
     6    27    28    1
     7    28    29    1
     8    29    30    1
     9    30    31    1
    10    31    32    1
    11    32    33    1
    12    33    34   ar
    13    33    35   ar
    14     2     3   ar
    15     3     4   ar
    16     4     5   ar
    17     5     6   ar
    18     6     7   ar
    19     7     8   ar
    20     8     9   ar
    21     9    10   ar
    22    10    11    1
    23    10    12   ar
    24    12    13   ar
    25    13    14    2
    26    13    15   ar
    27    15    16   ar
    28    16    36    1
    29    36    37    1
    30    37    38    2
    31    38    39    1
    32    38    40    1
    33     9    17    1
    34    17    18    2
    35    18    19    1
    36    19    20    1
    37    19    21    1
    38    19    22    1
    39    16     1   ar
    40    15     4   ar
    41    12     6   ar
    42    22     8    1
    43    11    23    1
@<TRIPOS>MOLECULE
*****
 40 43 0 0 0
SMALL
GASTEIGER

@<TRIPOS>ATOM
      1 C          62.0459   85.9207   11.5330 C.ar    1  UNL1        0.1690
      2 C          61.6044   86.3359   10.1609 C.ar    1  UNL1        0.1749
      3 C          61.9446   87.7028    9.6451 C.ar    1  UNL1        0.0776
      4 C          62.7263   88.6544   10.5014 C.ar    1  UNL1        0.1512
      5 O          63.0665   90.0212    9.9857 O.2     1  UNL1       -0.4530
      6 C          63.8483   90.9729   10.8420 C.ar    1  UNL1        0.1543
      7 C          64.1885   92.3397   10.3262 C.ar    1  UNL1        0.0747
      8 C          64.9703   93.2914   11.1826 C.ar    1  UNL1        0.1445
      9 C          65.4118   92.8762   12.5546 C.ar    1  UNL1        0.0677
     10 C          65.0716   91.5093   13.0704 C.ar    1  UNL1        0.1425
     11 O          65.5131   91.0941   14.4425 O.3     1  UNL1       -0.5052
     12 C          64.2898   90.5577   12.2141 C.ar    1  UNL1        0.1073
     13 C          63.9496   89.1908   12.7298 C.ar    1  UNL1        0.2042
     14 O          64.3912   88.7756   14.1019 O.2     1  UNL1       -0.2863
     15 C          63.1679   88.2392   11.8735 C.ar    1  UNL1        0.0731
     16 C          62.8277   86.8724   12.3893 C.ar    1  UNL1        0.0252
     17 C          66.1935   93.8277   13.4110 C.2     1  UNL1        0.0049
     18 C          66.5337   95.1945   12.8952 C.2     1  UNL1        0.0130
     19 C          66.0922   95.6098   11.5231 C.3     1  UNL1        0.1517
     20 C          65.8989   96.4578   10.3010 C.3     1  UNL1        0.0483
     21 C          66.8068   96.8559   11.9550 C.3     1  UNL1        0.0483
     22 O          65.3104   94.6582   10.6668 O.3     1  UNL1       -0.4783
     23 H          66.0015   91.6885   14.9774 H       1  UNL1        0.2922
     24 C          62.4785   83.3593   11.5738 C.3     1  UNL1        0.2526
     25 O          61.7057   84.5539   12.0487 O.3     1  UNL1       -0.4687
     26 O          60.8226   85.3844    9.3046 O.3     1  UNL1       -0.4723
     27 C          60.4179   85.7837    7.9165 C.3     1  UNL1        0.2056
     28 C          59.1995   86.6327    7.7055 C.3     1  UNL1        0.0473
     29 C          59.1608   88.0345    8.2379 C.3     1  UNL1        0.0038
     30 C          59.7171   89.1628    7.4208 C.3     1  UNL1        0.0005
     31 C          59.0019   89.6157    6.1825 C.3     1  UNL1        0.0059
     32 C          59.5379   90.7681    5.3858 C.3     1  UNL1        0.0417
     33 C          58.5931   91.7050    4.6934 C.2     1  UNL1        0.0503
     34 O          59.1146   92.6890    3.6885 O.co2   1  UNL1       -0.5492
     35 O          57.1267   91.6580    5.0058 O.co2   1  UNL1       -0.5492
     36 C          63.2692   86.4572   13.7614 C.3     1  UNL1        0.0550
     37 C          64.1638   85.2653   13.9327 C.2     1  UNL1       -0.0298
     38 C          63.7335   84.1240   14.8058 C.2     1  UNL1       -0.0475
     39 C          64.6280   82.9322   14.9772 C.3     1  UNL1        0.0260
     40 C          62.4087   84.1745   15.5075 C.3     1  UNL1        0.0260
@<TRIPOS>UNITY_ATOM_ATTR
34 1
charge -1
@<TRIPOS>BOND
     1    24    25    1
     2    25     1    1
     3     1     2   ar
     4     2    26    1
     5    26    27    1
     6    27    28    1
     7    28    29    1
     8    29    30    1
     9    30    31    1
    10    31    32    1
    11    32    33    1
    12    33    34   ar
    13    33    35   ar
    14     2     3   ar
    15     3     4   ar
    16     4     5   ar
    17     5     6   ar
    18     6     7   ar
    19     7     8   ar
    20     8     9   ar
    21     9    10   ar
    22    10    11    1
    23    10    12   ar
    24    12    13   ar
    25    13    14    2
    26    13    15   ar
    27    15    16   ar
    28    16    36    1
    29    36    37    1
    30    37    38    2
    31    38    39    1
    32    38    40    1
    33     9    17    1
    34    17    18    2
    35    18    19    1
    36    19    20    1
    37    19    21    1
    38    19    22    1
    39    16     1   ar
    40    15     4   ar
    41    12     6   ar
    42    22     8    1
    43    11    23    1
@<TRIPOS>MOLECULE
*****
 40 43 0 0 0
SMALL
GASTEIGER

@<TRIPOS>ATOM
      1 C          62.9529   85.6409   13.2778 C.ar    1  UNL1        0.1690
      2 C          62.2601   85.7583   11.9525 C.ar    1  UNL1        0.1749
      3 C          62.3523   87.0339   11.1685 C.ar    1  UNL1        0.0776
      4 C          63.1372   88.1919   11.7098 C.ar    1  UNL1        0.1512
      5 O          63.2293   89.4673   10.9258 O.2     1  UNL1       -0.4530
      6 C          64.0142   90.6254   11.4670 C.ar    1  UNL1        0.1543
      7 C          64.1063   91.9008   10.6831 C.ar    1  UNL1        0.0747
      8 C          64.8912   93.0589   11.2243 C.ar    1  UNL1        0.1445
      9 C          65.5840   92.9414   12.5495 C.ar    1  UNL1        0.0677
     10 C          65.4918   91.6659   13.3335 C.ar    1  UNL1        0.1425
     11 O          66.1846   91.5484   14.6588 O.3     1  UNL1       -0.5052
     12 C          64.7070   90.5079   12.7923 C.ar    1  UNL1        0.1073
     13 C          64.6148   89.2324   13.5763 C.ar    1  UNL1        0.2042
     14 O          65.3076   89.1149   14.9015 O.2     1  UNL1       -0.2863
     15 C          63.8299   88.0744   13.0350 C.ar    1  UNL1        0.0731
     16 C          63.7378   86.7989   13.8190 C.ar    1  UNL1        0.0252
     17 C          66.3689   94.0994   13.0908 C.2     1  UNL1        0.0049
     18 C          66.4610   95.3748   12.3068 C.2     1  UNL1        0.0130
     19 C          65.7682   95.4923   10.9816 C.3     1  UNL1        0.1517
     20 C          65.2904   96.0833    9.6883 C.3     1  UNL1        0.0483
     21 C          66.3872   96.8556   11.0737 C.3     1  UNL1        0.0483
     22 O          64.9833   94.3344   10.4403 O.3     1  UNL1       -0.4783
     23 H          66.6749   92.2718   14.9969 H       1  UNL1        0.2922
     24 C          61.6695   84.1067   14.9357 C.3     1  UNL1        0.2526
     25 O          62.8608   84.3654   14.0618 O.3     1  UNL1       -0.4687
     26 O          61.4752   84.6004   11.4113 O.3     1  UNL1       -0.4723
     27 C          61.9338   83.8997   10.1668 C.3     1  UNL1        0.2056
     28 C          63.3619   84.0167    9.7231 C.3     1  UNL1        0.0473
     29 C          64.3731   83.0055   10.1756 C.3     1  UNL1        0.0038
     30 C          64.7127   82.8841   11.6316 C.3     1  UNL1        0.0005
     31 C          64.3163   81.6548   12.3943 C.3     1  UNL1        0.0059
     32 C          62.8940   81.1793   12.3637 C.3     1  UNL1        0.0417
     33 C          62.2579   80.6359   13.6087 C.2     1  UNL1        0.0503
     34 O          63.0803   79.8586   14.5932 O.co2   1  UNL1       -0.5492
     35 O          60.7993   80.8700   13.8692 O.co2   1  UNL1       -0.5492
     36 C          64.4306   86.6814   15.1443 C.3     1  UNL1        0.0550
     37 C          63.6621   86.2445   16.3561 C.2     1  UNL1       -0.0298
     38 C          63.0113   87.2665   17.2403 C.2     1  UNL1       -0.0475
     39 C          62.2429   86.8296   18.4521 C.3     1  UNL1        0.0260
     40 C          63.1289   88.7256   16.9125 C.3     1  UNL1        0.0260
@<TRIPOS>UNITY_ATOM_ATTR
34 1
charge -1
@<TRIPOS>BOND
     1    24    25    1
     2    25     1    1
     3     1     2   ar
     4     2    26    1
     5    26    27    1
     6    27    28    1
     7    28    29    1
     8    29    30    1
     9    30    31    1
    10    31    32    1
    11    32    33    1
    12    33    34   ar
    13    33    35   ar
    14     2     3   ar
    15     3     4   ar
    16     4     5   ar
    17     5     6   ar
    18     6     7   ar
    19     7     8   ar
    20     8     9   ar
    21     9    10   ar
    22    10    11    1
    23    10    12   ar
    24    12    13   ar
    25    13    14    2
    26    13    15   ar
    27    15    16   ar
    28    16    36    1
    29    36    37    1
    30    37    38    2
    31    38    39    1
    32    38    40    1
    33     9    17    1
    34    17    18    2
    35    18    19    1
    36    19    20    1
    37    19    21    1
    38    19    22    1
    39    16     1   ar
    40    15     4   ar
    41    12     6   ar
    42    22     8    1
    43    11    23    1
