@<TRIPOS>MOLECULE
*****
 55 60 0 0 0
SMALL
GASTEIGER

@<TRIPOS>ATOM
      1 C          59.3326   90.4936    6.5101 C.ar    1  UNL1        0.0494
      2 C          60.5284   90.8293    5.6691 C.ar    1  UNL1        0.0159
      3 C          60.3472   91.5165    4.3481 C.ar    1  UNL1        0.0160
      4 C          58.9702   91.8680    3.8682 C.ar    1  UNL1        0.0517
      5 C          57.7744   91.5323    4.7093 C.ar    1  UNL1        0.0160
      6 C          57.9556   90.8451    6.0303 C.ar    1  UNL1        0.0159
      7 N          58.7890   92.5553    2.5473 N.am    1  UNL1       -0.2680
      8 C          59.9806   93.0931    1.8120 C.2     1  UNL1        0.3092
      9 O          61.3534   92.9437    2.3976 O.2     1  UNL1       -0.2521
     10 N          59.7994   93.7803    0.4910 N.am    1  UNL1       -0.2533
     11 H          57.8879   92.6533    2.1629 H       1  UNL1        0.1564
     12 H          58.8983   93.8783    0.1067 H       1  UNL1        0.1578
     13 C          60.9910   94.3181   -0.2443 C.ar    1  UNL1        0.1380
     14 C          62.2567   94.8265    0.3800 C.ar    1  UNL1        0.0509
     15 C          63.1741   95.2646   -0.7229 C.ar    1  UNL1        0.0810
     16 N          62.4755   95.0270   -2.0289 N.ar    1  UNL1       -0.1683
     17 N          61.1262   94.4421   -1.7331 N.ar    1  UNL1       -0.2162
     18 C          60.0936   94.0499   -2.7479 C.ar    1  UNL1        0.0854
     19 C          60.0113   94.7808   -4.0552 C.ar    1  UNL1        0.0193
     20 C          58.9787   94.3887   -5.0699 C.ar    1  UNL1        0.0028
     21 C          58.0283   93.2656   -4.7775 C.ar    1  UNL1        0.0142
     22 C          58.1106   92.5347   -3.4702 C.ar    1  UNL1        0.0430
     23 N          57.1603   91.4116   -3.1778 N.pl3   1  UNL1       -0.3570
     24 C          59.1433   92.9268   -2.4554 C.ar    1  UNL1        0.0333
     25 H          56.4825   91.1543   -3.8439 H       1  UNL1        0.1424
     26 H          57.2143   90.9318   -2.3198 H       1  UNL1        0.1424
     27 C          64.5488   95.8394   -0.5502 C.3     1  UNL1        0.0372
     28 C          64.3175   95.9482    0.9279 C.3     1  UNL1        0.0060
     29 C          64.7800   95.7306   -2.0282 C.3     1  UNL1        0.0060
     30 C          65.9235   96.4141   -0.3774 C.3     1  UNL1        0.0060
     31 N          59.5138   89.8064    7.8311 N.pl3   1  UNL1       -0.2979
     32 H          59.4140   90.3148    8.6682 H       1  UNL1        0.1536
     33 C          62.0403   88.1778   11.1799 C.ar    1  UNL1        0.0505
     34 C          62.3736   86.7160   11.2253 C.ar    1  UNL1        0.0162
     35 C          61.8648   85.7971   10.1545 C.ar    1  UNL1        0.0205
     36 C          61.0226   86.3400    9.0383 C.ar    1  UNL1        0.0858
     37 N          60.5137   85.4210    7.9674 N.ar    1  UNL1       -0.2239
     38 C          59.6715   85.9639    6.8512 C.ar    1  UNL1        0.2000
     39 N          59.3383   87.4258    6.8058 N.ar    1  UNL1       -0.2089
     40 C          59.8471   88.3446    7.8765 C.ar    1  UNL1        0.1353
     41 C          60.6893   87.8018    8.9928 C.ar    1  UNL1        0.0506
     42 C          61.1982   88.7206   10.0636 C.ar    1  UNL1        0.0190
     43 C          63.3211   90.3277   11.8781 C.2     1  UNL1        0.2275
     44 O          63.5841   90.6398   10.4347 O.2     1  UNL1       -0.2747
     45 N          62.5492   89.0967   12.2507 N.am    1  UNL1       -0.2839
     46 H          62.3766   88.8919   13.1981 H       1  UNL1        0.1549
     47 C          63.8299   91.2467   12.9489 C.3     1  UNL1        0.1026
     48 C          64.6995   90.7100   14.0469 C.3     1  UNL1        0.0818
     49 C          62.7280   86.2289   17.5158 C.3     1  UNL1        0.0897
     50 N          63.2209   87.3492   16.6486 N.3     1  UNL1       -0.2691
     51 C          64.0530   87.0494   15.4371 C.3     1  UNL1        0.0897
     52 C          64.5459   88.1697   14.5699 C.3     1  UNL1        0.0897
     53 N          64.2067   89.5897   14.9142 N.3     1  UNL1       -0.2699
     54 C          63.3745   89.8895   16.1257 C.3     1  UNL1        0.0897
     55 C          62.8817   88.7691   16.9929 C.3     1  UNL1        0.0897
@<TRIPOS>BOND
     1    49    50    1
     2    50    51    1
     3    51    52    1
     4    52    53    1
     5    53    48    1
     6    48    47    1
     7    47    43    1
     8    43    44    2
     9    43    45   am
    10    45    33    1
    11    33    34   ar
    12    34    35   ar
    13    35    36   ar
    14    36    37   ar
    15    37    38   ar
    16    38    39   ar
    17    39    40   ar
    18    40    31    1
    19    31     1    1
    20     1     2   ar
    21     2     3   ar
    22     3     4   ar
    23     4     7    1
    24     7     8   am
    25     8     9    2
    26     8    10   am
    27    10    13    1
    28    13    14   ar
    29    14    15   ar
    30    15    27    1
    31    27    28    1
    32    27    29    1
    33    27    30    1
    34    15    16   ar
    35    16    17   ar
    36    17    18    1
    37    18    19   ar
    38    19    20   ar
    39    20    21   ar
    40    21    22   ar
    41    22    23    1
    42    22    24   ar
    43     4     5   ar
    44     5     6   ar
    45    40    41   ar
    46    41    42   ar
    47    53    54    1
    48    54    55    1
    49    55    50    1
    50    42    33   ar
    51    41    36   ar
    52     6     1   ar
    53    17    13   ar
    54    24    18   ar
    55    45    46    1
    56    31    32    1
    57     7    11    1
    58    10    12    1
    59    23    25    1
    60    23    26    1
@<TRIPOS>MOLECULE
*****
 55 60 0 0 0
SMALL
GASTEIGER

@<TRIPOS>ATOM
      1 C          59.4037   90.5114    6.6342 C.ar    1  UNL1        0.0494
      2 C          60.5913   90.8717    5.7918 C.ar    1  UNL1        0.0159
      3 C          60.3927   91.5162    4.4520 C.ar    1  UNL1        0.0160
      4 C          59.0065   91.8003    3.9545 C.ar    1  UNL1        0.0517
      5 C          57.8188   91.4400    4.7969 C.ar    1  UNL1        0.0160
      6 C          58.0174   90.7955    6.1367 C.ar    1  UNL1        0.0159
      7 N          58.8079   92.4447    2.6146 N.am    1  UNL1       -0.2680
      8 C          59.9803   93.0239    1.8798 C.2     1  UNL1        0.3092
      9 O          61.3513   92.9585    2.4848 O.2     1  UNL1       -0.2521
     10 N          59.7817   93.6683    0.5399 N.am    1  UNL1       -0.2533
     11 H          57.9080   92.4876    2.2175 H       1  UNL1        0.1564
     12 H          58.8818   93.7112    0.1428 H       1  UNL1        0.1578
     13 C          60.9541   94.2474   -0.1950 C.ar    1  UNL1        0.1380
     14 C          62.2115   94.7768    0.4286 C.ar    1  UNL1        0.0509
     15 C          63.1095   95.2555   -0.6735 C.ar    1  UNL1        0.0810
     16 N          62.4071   95.0219   -1.9782 N.ar    1  UNL1       -0.1683
     17 N          61.0750   94.3989   -1.6824 N.ar    1  UNL1       -0.2162
     18 C          60.0447   93.9979   -2.6961 C.ar    1  UNL1        0.0854
     19 C          59.9551   94.7276   -4.0036 C.ar    1  UNL1        0.0193
     20 C          58.9249   94.3267   -5.0173 C.ar    1  UNL1        0.0028
     21 C          57.9841   93.1958   -4.7236 C.ar    1  UNL1        0.0142
     22 C          58.0737   92.4660   -3.4161 C.ar    1  UNL1        0.0430
     23 N          57.1329   91.3352   -3.1225 N.pl3   1  UNL1       -0.3570
     24 C          59.1040   92.8671   -2.4024 C.ar    1  UNL1        0.0333
     25 H          56.4567   91.0720   -3.7878 H       1  UNL1        0.1424
     26 H          57.1917   90.8562   -2.2644 H       1  UNL1        0.1424
     27 C          64.4708   95.8612   -0.5011 C.3     1  UNL1        0.0372
     28 C          64.7749   95.5884   -1.9444 C.3     1  UNL1        0.0060
     29 C          64.1667   96.1340    0.9422 C.3     1  UNL1        0.0060
     30 C          65.8322   96.4670   -0.3288 C.3     1  UNL1        0.0060
     31 N          59.6023   89.8669    7.9741 N.pl3   1  UNL1       -0.2979
     32 H          59.5135   90.4020    8.7957 H       1  UNL1        0.1536
     33 C          62.2778   88.3655   11.2661 C.ar    1  UNL1        0.0505
     34 C          62.6117   86.9058   11.3541 C.ar    1  UNL1        0.0162
     35 C          62.0539   85.9466   10.3449 C.ar    1  UNL1        0.0205
     36 C          61.1620   86.4471    9.2475 C.ar    1  UNL1        0.0858
     37 N          60.6041   85.4878    8.2382 N.ar    1  UNL1       -0.2239
     38 C          59.7123   85.9883    7.1409 C.ar    1  UNL1        0.2000
     39 N          59.3783   87.4481    7.0529 N.ar    1  UNL1       -0.2089
     40 C          59.9362   88.4073    8.0621 C.ar    1  UNL1        0.1353
     41 C          60.8281   87.9068    9.1595 C.ar    1  UNL1        0.0506
     42 C          61.3860   88.8660   10.1687 C.ar    1  UNL1        0.0190
     43 C          63.4905   90.5953   11.8205 C.2     1  UNL1        0.2275
     44 O          63.5875   90.9066   10.3564 O.2     1  UNL1       -0.2747
     45 N          62.8357   89.3247   12.2754 N.am    1  UNL1       -0.2839
     46 H          62.7721   89.1204   13.2363 H       1  UNL1        0.1549
     47 C          64.0485   91.5545   12.8298 C.3     1  UNL1        0.1026
     48 C          65.5067   91.9051   12.8052 C.3     1  UNL1        0.0818
     49 C          67.5537   95.9495    8.8743 C.3     1  UNL1        0.0897
     50 N          67.0420   94.9384    9.8570 N.3     1  UNL1       -0.2691
     51 C          66.4503   95.3907   11.1591 C.3     1  UNL1        0.0897
     52 C          65.9385   94.3797   12.1418 C.3     1  UNL1        0.0897
     53 N          66.0184   92.9162   11.8225 N.3     1  UNL1       -0.2699
     54 C          66.6101   92.4638   10.5205 C.3     1  UNL1        0.0897
     55 C          67.1219   93.4750    9.5377 C.3     1  UNL1        0.0897
@<TRIPOS>BOND
     1    49    50    1
     2    50    51    1
     3    51    52    1
     4    52    53    1
     5    53    48    1
     6    48    47    1
     7    47    43    1
     8    43    44    2
     9    43    45   am
    10    45    33    1
    11    33    34   ar
    12    34    35   ar
    13    35    36   ar
    14    36    37   ar
    15    37    38   ar
    16    38    39   ar
    17    39    40   ar
    18    40    31    1
    19    31     1    1
    20     1     2   ar
    21     2     3   ar
    22     3     4   ar
    23     4     7    1
    24     7     8   am
    25     8     9    2
    26     8    10   am
    27    10    13    1
    28    13    14   ar
    29    14    15   ar
    30    15    27    1
    31    27    28    1
    32    27    29    1
    33    27    30    1
    34    15    16   ar
    35    16    17   ar
    36    17    18    1
    37    18    19   ar
    38    19    20   ar
    39    20    21   ar
    40    21    22   ar
    41    22    23    1
    42    22    24   ar
    43     4     5   ar
    44     5     6   ar
    45    40    41   ar
    46    41    42   ar
    47    53    54    1
    48    54    55    1
    49    55    50    1
    50    42    33   ar
    51    41    36   ar
    52     6     1   ar
    53    17    13   ar
    54    24    18   ar
    55    45    46    1
    56    31    32    1
    57     7    11    1
    58    10    12    1
    59    23    25    1
    60    23    26    1
@<TRIPOS>MOLECULE
*****
 55 60 0 0 0
SMALL
GASTEIGER

@<TRIPOS>ATOM
      1 C          59.2801   91.6343    4.3992 C.ar    1  UNL1        0.0494
      2 C          60.6187   91.0881    4.7989 C.ar    1  UNL1        0.0159
      3 C          60.7246   90.1273    5.9459 C.ar    1  UNL1        0.0160
      4 C          59.4919   89.7127    6.6932 C.ar    1  UNL1        0.0517
      5 C          58.1532   90.2589    6.2935 C.ar    1  UNL1        0.0160
      6 C          58.0473   91.2197    5.1465 C.ar    1  UNL1        0.0159
      7 N          59.5978   88.7518    7.8402 N.am    1  UNL1       -0.2680
      8 C          60.6269   88.9706    8.9093 C.2     1  UNL1        0.3092
      9 O          61.5502   90.1502    8.8313 O.2     1  UNL1       -0.2521
     10 N          60.7328   88.0098   10.0563 N.am    1  UNL1       -0.2533
     11 H          58.9918   87.9776    7.8913 H       1  UNL1        0.1564
     12 H          60.1268   87.2356   10.1074 H       1  UNL1        0.1578
     13 C          61.7619   88.2285   11.1253 C.ar    1  UNL1        0.1380
     14 C          62.0573   89.5291   11.8120 C.ar    1  UNL1        0.0509
     15 C          63.1543   89.2896   12.8065 C.ar    1  UNL1        0.0810
     16 N          63.5371   87.8410   12.7346 N.ar    1  UNL1       -0.1683
     17 N          62.6765   87.1852   11.6955 N.ar    1  UNL1       -0.2162
     18 C          62.7224   85.7399   11.2968 C.ar    1  UNL1        0.0854
     19 C          62.9209   85.3648    9.8580 C.ar    1  UNL1        0.0193
     20 C          62.9669   83.9196    9.4592 C.ar    1  UNL1        0.0028
     21 C          62.8143   82.8494   10.4992 C.ar    1  UNL1        0.0142
     22 C          62.6158   83.2245   11.9379 C.ar    1  UNL1        0.0430
     23 N          62.4633   82.1543   12.9778 N.pl3   1  UNL1       -0.3570
     24 C          62.5699   84.6698   12.3367 C.ar    1  UNL1        0.0333
     25 H          62.4934   81.2057   12.7160 H       1  UNL1        0.1424
     26 H          62.3330   82.4005   13.9220 H       1  UNL1        0.1424
     27 C          63.7619   90.3180   13.7137 C.3     1  UNL1        0.0372
     28 C          63.8460   89.2996   14.8118 C.3     1  UNL1        0.0060
     29 C          63.6779   91.3363   12.6155 C.3     1  UNL1        0.0060
     30 C          64.3696   91.3465   14.6209 C.3     1  UNL1        0.0060
     31 N          59.1742   92.5951    3.2522 N.pl3   1  UNL1       -0.2979
     32 H          58.3393   93.0955    3.1047 H       1  UNL1        0.1536
     33 C          58.4726   93.5142   -1.0967 C.ar    1  UNL1        0.0505
     34 C          59.6387   93.7126   -2.0190 C.ar    1  UNL1        0.0162
     35 C          61.0388   93.6046   -1.4917 C.ar    1  UNL1        0.0205
     36 C          61.2727   93.2982   -0.0420 C.ar    1  UNL1        0.0858
     37 N          62.6728   93.1902    0.4853 N.ar    1  UNL1       -0.2239
     38 C          62.9067   92.8839    1.9349 C.ar    1  UNL1        0.2000
     39 N          61.7405   92.6855    2.8572 N.ar    1  UNL1       -0.2089
     40 C          60.3404   92.7935    2.3299 C.ar    1  UNL1        0.1353
     41 C          60.1065   93.0998    0.8803 C.ar    1  UNL1        0.0506
     42 C          58.7065   93.2078    0.3529 C.ar    1  UNL1        0.0190
     43 C          56.3639   94.9441   -1.6056 C.2     1  UNL1        0.2275
     44 O          57.0555   96.1582   -1.0598 O.2     1  UNL1       -0.2747
     45 N          57.0724   93.6222   -1.6241 N.am    1  UNL1       -0.2839
     46 H          56.6185   92.8254   -1.9823 H       1  UNL1        0.1549
     47 C          54.9637   95.0521   -2.1329 C.3     1  UNL1        0.1026
     48 C          54.6948   95.8150   -3.3961 C.3     1  UNL1        0.0818
     49 C          49.0466   96.7480   -5.1922 C.3     1  UNL1        0.0897
     50 N          50.4586   96.5148   -4.7432 N.3     1  UNL1       -0.2691
     51 C          51.5616   96.4205   -5.7554 C.3     1  UNL1        0.0897
     52 C          52.9737   96.1873   -5.3064 C.3     1  UNL1        0.0897
     53 N          53.2828   96.0483   -3.8451 N.3     1  UNL1       -0.2699
     54 C          52.1797   96.1426   -2.8329 C.3     1  UNL1        0.0897
     55 C          50.7676   96.3758   -3.2820 C.3     1  UNL1        0.0897
@<TRIPOS>BOND
     1    49    50    1
     2    50    51    1
     3    51    52    1
     4    52    53    1
     5    53    48    1
     6    48    47    1
     7    47    43    1
     8    43    44    2
     9    43    45   am
    10    45    33    1
    11    33    34   ar
    12    34    35   ar
    13    35    36   ar
    14    36    37   ar
    15    37    38   ar
    16    38    39   ar
    17    39    40   ar
    18    40    31    1
    19    31     1    1
    20     1     2   ar
    21     2     3   ar
    22     3     4   ar
    23     4     7    1
    24     7     8   am
    25     8     9    2
    26     8    10   am
    27    10    13    1
    28    13    14   ar
    29    14    15   ar
    30    15    27    1
    31    27    28    1
    32    27    29    1
    33    27    30    1
    34    15    16   ar
    35    16    17   ar
    36    17    18    1
    37    18    19   ar
    38    19    20   ar
    39    20    21   ar
    40    21    22   ar
    41    22    23    1
    42    22    24   ar
    43     4     5   ar
    44     5     6   ar
    45    40    41   ar
    46    41    42   ar
    47    53    54    1
    48    54    55    1
    49    55    50    1
    50    42    33   ar
    51    41    36   ar
    52     6     1   ar
    53    17    13   ar
    54    24    18   ar
    55    45    46    1
    56    31    32    1
    57     7    11    1
    58    10    12    1
    59    23    25    1
    60    23    26    1
@<TRIPOS>MOLECULE
*****
 55 60 0 0 0
SMALL
GASTEIGER

@<TRIPOS>ATOM
      1 C          59.2015   91.6254    4.3699 C.ar    1  UNL1        0.0494
      2 C          60.5356   91.0788    4.7839 C.ar    1  UNL1        0.0159
      3 C          60.6324   90.1402    5.9499 C.ar    1  UNL1        0.0160
      4 C          59.3952   89.7480    6.7019 C.ar    1  UNL1        0.0517
      5 C          58.0610   90.2946    6.2878 C.ar    1  UNL1        0.0160
      6 C          57.9642   91.2333    5.1218 C.ar    1  UNL1        0.0159
      7 N          59.4920   88.8094    7.8679 N.am    1  UNL1       -0.2680
      8 C          60.5281   89.0355    8.9287 C.2     1  UNL1        0.3092
      9 O          61.4673   90.2003    8.8235 O.2     1  UNL1       -0.2521
     10 N          60.6250   88.0968   10.0947 N.am    1  UNL1       -0.2533
     11 H          58.8756   88.0449    7.9369 H       1  UNL1        0.1564
     12 H          60.0085   87.3323   10.1637 H       1  UNL1        0.1578
     13 C          61.6610   88.3229   11.1555 C.ar    1  UNL1        0.1380
     14 C          61.9037   89.6073   11.8915 C.ar    1  UNL1        0.0509
     15 C          63.0290   89.3826   12.8575 C.ar    1  UNL1        0.0810
     16 N          63.4819   87.9593   12.7186 N.ar    1  UNL1       -0.1683
     17 N          62.6364   87.3044   11.6666 N.ar    1  UNL1       -0.2162
     18 C          62.7470   85.8810   11.2067 C.ar    1  UNL1        0.0854
     19 C          62.9412   85.5761    9.7509 C.ar    1  UNL1        0.0193
     20 C          63.0517   84.1528    9.2909 C.ar    1  UNL1        0.0028
     21 C          62.9682   83.0341   10.2868 C.ar    1  UNL1        0.0142
     22 C          62.7740   83.3390   11.7426 C.ar    1  UNL1        0.0430
     23 N          62.6905   82.2203   12.7383 N.pl3   1  UNL1       -0.3570
     24 C          62.6634   84.7624   12.2025 C.ar    1  UNL1        0.0333
     25 H          62.7630   81.2861   12.4364 H       1  UNL1        0.1424
     26 H          62.5630   82.4203   13.6938 H       1  UNL1        0.1424
     27 C          63.6009   90.4020   13.7973 C.3     1  UNL1        0.0372
     28 C          63.8716   91.3171   12.6400 C.3     1  UNL1        0.0060
     29 C          63.3303   89.4870   14.9547 C.3     1  UNL1        0.0060
     30 C          64.1729   91.4216   14.7373 C.3     1  UNL1        0.0060
     31 N          59.1047   92.5640    3.2039 N.pl3   1  UNL1       -0.2979
     32 H          58.2669   93.0521    3.0331 H       1  UNL1        0.1536
     33 C          58.4672   93.5656   -1.1367 C.ar    1  UNL1        0.0505
     34 C          59.6468   93.7607   -2.0424 C.ar    1  UNL1        0.0162
     35 C          61.0389   93.6219   -1.5013 C.ar    1  UNL1        0.0205
     36 C          61.2514   93.2881   -0.0545 C.ar    1  UNL1        0.0858
     37 N          62.6435   93.1493    0.4866 N.ar    1  UNL1       -0.2239
     38 C          62.8560   92.8155    1.9335 C.ar    1  UNL1        0.2000
     39 N          61.6763   92.6204    2.8392 N.ar    1  UNL1       -0.2089
     40 C          60.2843   92.7591    2.2981 C.ar    1  UNL1        0.1353
     41 C          60.0718   93.0930    0.8513 C.ar    1  UNL1        0.0506
     42 C          58.6797   93.2317    0.3102 C.ar    1  UNL1        0.0190
     43 C          56.3576   95.0175   -1.5742 C.2     1  UNL1        0.2275
     44 O          57.0322   96.1920   -0.9296 O.2     1  UNL1       -0.2747
     45 N          57.0751   93.7043   -1.6778 N.am    1  UNL1       -0.2839
     46 H          56.6323   92.9335   -2.1008 H       1  UNL1        0.1549
     47 C          54.9654   95.1563   -2.1153 C.3     1  UNL1        0.1026
     48 C          54.7520   95.4399   -3.5726 C.3     1  UNL1        0.0818
     49 C          59.0852   94.2059   -7.5349 C.3     1  UNL1        0.0897
     50 N          58.0019   94.5144   -6.5444 N.3     1  UNL1       -0.2691
     51 C          57.0626   93.4330   -6.0991 C.3     1  UNL1        0.0897
     52 C          55.9793   93.7414   -5.1085 C.3     1  UNL1        0.0897
     53 N          55.8353   95.1314   -4.5632 N.3     1  UNL1       -0.2699
     54 C          56.7746   96.2128   -5.0084 C.3     1  UNL1        0.0897
     55 C          57.8579   95.9043   -5.9991 C.3     1  UNL1        0.0897
@<TRIPOS>BOND
     1    49    50    1
     2    50    51    1
     3    51    52    1
     4    52    53    1
     5    53    48    1
     6    48    47    1
     7    47    43    1
     8    43    44    2
     9    43    45   am
    10    45    33    1
    11    33    34   ar
    12    34    35   ar
    13    35    36   ar
    14    36    37   ar
    15    37    38   ar
    16    38    39   ar
    17    39    40   ar
    18    40    31    1
    19    31     1    1
    20     1     2   ar
    21     2     3   ar
    22     3     4   ar
    23     4     7    1
    24     7     8   am
    25     8     9    2
    26     8    10   am
    27    10    13    1
    28    13    14   ar
    29    14    15   ar
    30    15    27    1
    31    27    28    1
    32    27    29    1
    33    27    30    1
    34    15    16   ar
    35    16    17   ar
    36    17    18    1
    37    18    19   ar
    38    19    20   ar
    39    20    21   ar
    40    21    22   ar
    41    22    23    1
    42    22    24   ar
    43     4     5   ar
    44     5     6   ar
    45    40    41   ar
    46    41    42   ar
    47    53    54    1
    48    54    55    1
    49    55    50    1
    50    42    33   ar
    51    41    36   ar
    52     6     1   ar
    53    17    13   ar
    54    24    18   ar
    55    45    46    1
    56    31    32    1
    57     7    11    1
    58    10    12    1
    59    23    25    1
    60    23    26    1
@<TRIPOS>MOLECULE
*****
 55 60 0 0 0
SMALL
GASTEIGER

@<TRIPOS>ATOM
      1 C          59.5075   90.4705    6.6444 C.ar    1  UNL1        0.0494
      2 C          60.6555   90.8263    5.7470 C.ar    1  UNL1        0.0159
      3 C          60.3968   91.4754    4.4197 C.ar    1  UNL1        0.0160
      4 C          58.9901   91.7686    3.9897 C.ar    1  UNL1        0.0517
      5 C          57.8419   91.4128    4.8871 C.ar    1  UNL1        0.0160
      6 C          58.1006   90.7638    6.2144 C.ar    1  UNL1        0.0159
      7 N          58.7314   92.4177    2.6624 N.am    1  UNL1       -0.2680
      8 C          59.8677   93.0109    1.8834 C.2     1  UNL1        0.3092
      9 O          61.2627   92.9550    2.4318 O.2     1  UNL1       -0.2521
     10 N          59.6090   93.6600    0.5561 N.am    1  UNL1       -0.2533
     11 H          57.8157   92.4544    2.3025 H       1  UNL1        0.1564
     12 H          58.6934   93.6967    0.1962 H       1  UNL1        0.1578
     13 C          60.7453   94.2532   -0.2228 C.ar    1  UNL1        0.1380
     14 C          62.0644   94.6941    0.3392 C.ar    1  UNL1        0.0509
     15 C          62.8964   95.2230   -0.7912 C.ar    1  UNL1        0.0810
     16 N          62.0917   95.1091   -2.0520 N.ar    1  UNL1       -0.1683
     17 N          60.7622   94.5096   -1.7007 N.ar    1  UNL1       -0.2162
     18 C          59.6457   94.2179   -2.6590 C.ar    1  UNL1        0.0854
     19 C          59.0821   95.3165   -3.5107 C.ar    1  UNL1        0.0193
     20 C          57.9657   95.0249   -4.4690 C.ar    1  UNL1        0.0028
     21 C          57.4128   93.6345   -4.5756 C.ar    1  UNL1        0.0142
     22 C          57.9764   92.5359   -3.7239 C.ar    1  UNL1        0.0430
     23 N          57.4235   91.1457   -3.8306 N.pl3   1  UNL1       -0.3570
     24 C          59.0929   92.8276   -2.7656 C.ar    1  UNL1        0.0333
     25 H          56.6907   90.9543   -4.4596 H       1  UNL1        0.1424
     26 H          57.7934   90.4246   -3.2716 H       1  UNL1        0.1424
     27 C          64.2887   95.7699   -0.6804 C.3     1  UNL1        0.0372
     28 C          63.9972   96.2286    0.7177 C.3     1  UNL1        0.0060
     29 C          64.5802   95.3112   -2.0785 C.3     1  UNL1        0.0060
     30 C          65.6811   96.3168   -0.5695 C.3     1  UNL1        0.0060
     31 N          59.7662   89.8214    7.9717 N.pl3   1  UNL1       -0.2979
     32 H          59.7710   90.3647    8.7927 H       1  UNL1        0.1536
     33 C          62.3186   88.1415   11.2751 C.ar    1  UNL1        0.0505
     34 C          62.5701   86.6647   11.3515 C.ar    1  UNL1        0.0162
     35 C          61.9707   85.7479   10.3268 C.ar    1  UNL1        0.0205
     36 C          61.1198   86.3079    9.2257 C.ar    1  UNL1        0.0858
     37 N          60.5204   85.3910    8.2009 N.ar    1  UNL1       -0.2239
     38 C          59.6696   85.9510    7.0997 C.ar    1  UNL1        0.2000
     39 N          59.4182   87.4278    7.0234 N.ar    1  UNL1       -0.2089
     40 C          60.0176   88.3446    8.0481 C.ar    1  UNL1        0.1353
     41 C          60.8684   87.7847    9.1492 C.ar    1  UNL1        0.0506
     42 C          61.4678   88.7015   10.1740 C.ar    1  UNL1        0.0190
     43 C          63.6937   88.4911   13.4517 C.2     1  UNL1        0.2275
     44 O          63.8699   87.0069   13.5787 O.2     1  UNL1       -0.2747
     45 N          62.9181   89.0584   12.2999 N.am    1  UNL1       -0.2839
     46 H          62.8024   90.0325   12.2166 H       1  UNL1        0.1549
     47 C          64.2931   89.4080   14.4764 C.3     1  UNL1        0.1026
     48 C          64.0313   90.8833   14.4074 C.3     1  UNL1        0.0818
     49 C          66.9292   94.2590   10.3817 C.3     1  UNL1        0.0897
     50 N          66.2047   93.4151   11.3881 N.3     1  UNL1       -0.2691
     51 C          66.6417   93.4182   12.8231 C.3     1  UNL1        0.0897
     52 C          65.9172   92.5743   13.8295 C.3     1  UNL1        0.0897
     53 N          64.7557   91.7272   13.4010 N.3     1  UNL1       -0.2699
     54 C          64.3188   91.7241   11.9660 C.3     1  UNL1        0.0897
     55 C          65.0433   92.5681   10.9596 C.3     1  UNL1        0.0897
@<TRIPOS>BOND
     1    49    50    1
     2    50    51    1
     3    51    52    1
     4    52    53    1
     5    53    48    1
     6    48    47    1
     7    47    43    1
     8    43    44    2
     9    43    45   am
    10    45    33    1
    11    33    34   ar
    12    34    35   ar
    13    35    36   ar
    14    36    37   ar
    15    37    38   ar
    16    38    39   ar
    17    39    40   ar
    18    40    31    1
    19    31     1    1
    20     1     2   ar
    21     2     3   ar
    22     3     4   ar
    23     4     7    1
    24     7     8   am
    25     8     9    2
    26     8    10   am
    27    10    13    1
    28    13    14   ar
    29    14    15   ar
    30    15    27    1
    31    27    28    1
    32    27    29    1
    33    27    30    1
    34    15    16   ar
    35    16    17   ar
    36    17    18    1
    37    18    19   ar
    38    19    20   ar
    39    20    21   ar
    40    21    22   ar
    41    22    23    1
    42    22    24   ar
    43     4     5   ar
    44     5     6   ar
    45    40    41   ar
    46    41    42   ar
    47    53    54    1
    48    54    55    1
    49    55    50    1
    50    42    33   ar
    51    41    36   ar
    52     6     1   ar
    53    17    13   ar
    54    24    18   ar
    55    45    46    1
    56    31    32    1
    57     7    11    1
    58    10    12    1
    59    23    25    1
    60    23    26    1
@<TRIPOS>MOLECULE
*****
 55 60 0 0 0
SMALL
GASTEIGER

@<TRIPOS>ATOM
      1 C          58.9270   89.8646    6.3388 C.ar    1  UNL1        0.0494
      2 C          60.3430   90.1488    5.9338 C.ar    1  UNL1        0.0159
      3 C          60.6422   91.2813    4.9968 C.ar    1  UNL1        0.0160
      4 C          59.5254   92.1297    4.4649 C.ar    1  UNL1        0.0517
      5 C          58.1093   91.8456    4.8700 C.ar    1  UNL1        0.0160
      6 C          57.8101   90.7131    5.8069 C.ar    1  UNL1        0.0159
      7 N          59.8246   93.2622    3.5280 N.am    1  UNL1       -0.2680
      8 C          59.7619   93.0453    2.0451 C.2     1  UNL1        0.3092
      9 O          59.4000   91.6959    1.4992 O.2     1  UNL1       -0.2521
     10 N          60.0612   94.1778    1.1082 N.am    1  UNL1       -0.2533
     11 H          60.0622   94.1479    3.8863 H       1  UNL1        0.1564
     12 H          60.2987   95.0635    1.4665 H       1  UNL1        0.1578
     13 C          59.9985   93.9610   -0.3747 C.ar    1  UNL1        0.1380
     14 C          58.7803   93.5701   -1.1579 C.ar    1  UNL1        0.0509
     15 C          59.1718   93.4644   -2.6021 C.ar    1  UNL1        0.0810
     16 N          60.6320   93.7900   -2.7115 N.ar    1  UNL1       -0.1683
     17 N          61.1429   94.0968   -1.3349 N.ar    1  UNL1       -0.2162
     18 C          62.5510   94.4735   -0.9806 C.ar    1  UNL1        0.0854
     19 C          63.2187   95.6208   -1.6790 C.ar    1  UNL1        0.0193
     20 C          64.6268   95.9975   -1.3249 C.ar    1  UNL1        0.0028
     21 C          65.3671   95.2267   -0.2722 C.ar    1  UNL1        0.0142
     22 C          64.6993   94.0794    0.4262 C.ar    1  UNL1        0.0430
     23 N          65.4397   93.3087    1.4787 N.pl3   1  UNL1       -0.3570
     24 C          63.2913   93.7027    0.0719 C.ar    1  UNL1        0.0333
     25 H          66.3639   93.5559    1.7111 H       1  UNL1        0.1424
     26 H          65.0015   92.5557    1.9371 H       1  UNL1        0.1424
     27 C          58.2629   93.0976   -3.7374 C.3     1  UNL1        0.0372
     28 C          57.4215   92.2825   -2.8005 C.3     1  UNL1        0.0060
     29 C          59.1042   93.9127   -4.6743 C.3     1  UNL1        0.0060
     30 C          57.3538   92.7308   -4.8728 C.3     1  UNL1        0.0060
     31 N          58.6277   88.7321    7.2758 N.pl3   1  UNL1       -0.2979
     32 H          57.8290   88.7665    7.8503 H       1  UNL1        0.1536
     33 C          61.7575   88.4750   10.4989 C.ar    1  UNL1        0.0505
     34 C          62.6752   87.2901   10.5604 C.ar    1  UNL1        0.0162
     35 C          62.5496   86.1909    9.5476 C.ar    1  UNL1        0.0205
     36 C          61.5063   86.2766    8.4732 C.ar    1  UNL1        0.0858
     37 N          61.3807   85.1773    7.4603 N.ar    1  UNL1       -0.2239
     38 C          60.3375   85.2630    6.3859 C.ar    1  UNL1        0.2000
     39 N          59.4198   86.4480    6.3244 N.ar    1  UNL1       -0.2089
     40 C          59.5454   87.5472    7.3373 C.ar    1  UNL1        0.1353
     41 C          60.5887   87.4615    8.4117 C.ar    1  UNL1        0.0506
     42 C          60.7143   88.5607    9.4245 C.ar    1  UNL1        0.0190
     43 C          62.8145   89.4177   12.6770 C.2     1  UNL1        0.2275
     44 O          63.6204   88.1618   12.8295 O.2     1  UNL1       -0.2747
     45 N          61.8831   89.5743   11.5118 N.am    1  UNL1       -0.2839
     46 H          61.3542   90.3986   11.4117 H       1  UNL1        0.1549
     47 C          62.9401   90.5170   13.6899 C.3     1  UNL1        0.1026
     48 C          64.2897   91.0824   14.0196 C.3     1  UNL1        0.0818
     49 C          66.9095   94.9705   10.2755 C.3     1  UNL1        0.0897
     50 N          66.2545   93.9985   11.2115 N.3     1  UNL1       -0.2691
     51 C          65.3113   92.9619   10.6769 C.3     1  UNL1        0.0897
     52 C          64.6563   91.9899   11.6129 C.3     1  UNL1        0.0897
     53 N          64.9446   92.0544   13.0836 N.3     1  UNL1       -0.2699
     54 C          65.8879   93.0910   13.6182 C.3     1  UNL1        0.0897
     55 C          66.5429   94.0630   12.6821 C.3     1  UNL1        0.0897
@<TRIPOS>BOND
     1    49    50    1
     2    50    51    1
     3    51    52    1
     4    52    53    1
     5    53    48    1
     6    48    47    1
     7    47    43    1
     8    43    44    2
     9    43    45   am
    10    45    33    1
    11    33    34   ar
    12    34    35   ar
    13    35    36   ar
    14    36    37   ar
    15    37    38   ar
    16    38    39   ar
    17    39    40   ar
    18    40    31    1
    19    31     1    1
    20     1     2   ar
    21     2     3   ar
    22     3     4   ar
    23     4     7    1
    24     7     8   am
    25     8     9    2
    26     8    10   am
    27    10    13    1
    28    13    14   ar
    29    14    15   ar
    30    15    27    1
    31    27    28    1
    32    27    29    1
    33    27    30    1
    34    15    16   ar
    35    16    17   ar
    36    17    18    1
    37    18    19   ar
    38    19    20   ar
    39    20    21   ar
    40    21    22   ar
    41    22    23    1
    42    22    24   ar
    43     4     5   ar
    44     5     6   ar
    45    40    41   ar
    46    41    42   ar
    47    53    54    1
    48    54    55    1
    49    55    50    1
    50    42    33   ar
    51    41    36   ar
    52     6     1   ar
    53    17    13   ar
    54    24    18   ar
    55    45    46    1
    56    31    32    1
    57     7    11    1
    58    10    12    1
    59    23    25    1
    60    23    26    1
@<TRIPOS>MOLECULE
*****
 55 60 0 0 0
SMALL
GASTEIGER

@<TRIPOS>ATOM
      1 C          60.5762   88.0190    9.9430 C.ar    1  UNL1        0.0494
      2 C          59.9632   88.5553   11.2026 C.ar    1  UNL1        0.0159
      3 C          60.5477   89.7682   11.8638 C.ar    1  UNL1        0.0160
      4 C          61.7452   90.4449   11.2653 C.ar    1  UNL1        0.0517
      5 C          62.3582   89.9087   10.0057 C.ar    1  UNL1        0.0160
      6 C          61.7737   88.6957    9.3445 C.ar    1  UNL1        0.0159
      7 N          62.3296   91.6579   11.9265 N.am    1  UNL1       -0.2680
      8 C          63.7668   91.6587   12.3561 C.2     1  UNL1        0.3092
      9 O          64.6194   90.4466   12.1245 O.2     1  UNL1       -0.2521
     10 N          64.3513   92.8716   13.0173 N.am    1  UNL1       -0.2533
     11 H          61.7700   92.4534   12.0785 H       1  UNL1        0.1564
     12 H          63.7916   93.6672   13.1692 H       1  UNL1        0.1578
     13 C          65.7884   92.8725   13.4469 C.ar    1  UNL1        0.1380
     14 C          66.3085   92.4420   14.7864 C.ar    1  UNL1        0.0509
     15 C          67.7993   92.6074   14.7798 C.ar    1  UNL1        0.0810
     16 N          68.2007   93.1400   13.4362 N.ar    1  UNL1       -0.1683
     17 N          66.9578   93.3038   12.6124 N.ar    1  UNL1       -0.2162
     18 C          66.8955   93.8101   11.2018 C.ar    1  UNL1        0.0854
     19 C          67.6802   93.1238   10.1232 C.ar    1  UNL1        0.0193
     20 C          67.6178   93.6301    8.7127 C.ar    1  UNL1        0.0028
     21 C          66.7707   94.8227    8.3806 C.ar    1  UNL1        0.0142
     22 C          65.9860   95.5089    9.4592 C.ar    1  UNL1        0.0430
     23 N          65.1390   96.7015    9.1271 N.pl3   1  UNL1       -0.3570
     24 C          66.0484   95.0027   10.8698 C.ar    1  UNL1        0.0333
     25 H          65.0981   97.0337    8.2012 H       1  UNL1        0.1424
     26 H          64.6239   97.1519    9.8349 H       1  UNL1        0.1424
     27 C          68.7260   92.2950   15.9171 C.3     1  UNL1        0.0372
     28 C          69.9047   92.5944   15.0389 C.3     1  UNL1        0.0060
     29 C          67.5474   91.9956   16.7953 C.3     1  UNL1        0.0060
     30 C          69.6528   91.9826   17.0545 C.3     1  UNL1        0.0060
     31 N          59.9917   86.8061    9.2819 N.pl3   1  UNL1       -0.2979
     32 H          59.0252   86.6293    9.3438 H       1  UNL1        0.1536
     33 C          63.1153   84.4176   11.4702 C.ar    1  UNL1        0.0505
     34 C          64.0034   83.4739   10.7148 C.ar    1  UNL1        0.0162
     35 C          63.8503   83.3264    9.2300 C.ar    1  UNL1        0.0205
     36 C          62.8091   84.1225    8.5005 C.ar    1  UNL1        0.0858
     37 N          62.6561   83.9749    7.0156 N.ar    1  UNL1       -0.2239
     38 C          61.6149   84.7711    6.2862 C.ar    1  UNL1        0.2000
     39 N          60.7267   85.7148    7.0417 N.ar    1  UNL1       -0.2089
     40 C          60.8798   85.8624    8.5265 C.ar    1  UNL1        0.1353
     41 C          61.9210   85.0662    9.2559 C.ar    1  UNL1        0.0506
     42 C          62.0741   85.2138   10.7408 C.ar    1  UNL1        0.0190
     43 C          62.7304   83.5082   13.8733 C.2     1  UNL1        0.2275
     44 O          62.0393   82.3034   13.3066 O.2     1  UNL1       -0.2747
     45 N          63.2684   84.5652   12.9551 N.am    1  UNL1       -0.2839
     46 H          63.7219   85.3559   13.3270 H       1  UNL1        0.1549
     47 C          62.8834   83.6557   15.3582 C.3     1  UNL1        0.1026
     48 C          63.9774   84.5161   15.9175 C.3     1  UNL1        0.0818
     49 C          63.4203   90.4899   15.8626 C.3     1  UNL1        0.0897
     50 N          63.5595   88.9965   15.8764 N.3     1  UNL1       -0.2691
     51 C          62.9321   88.1948   16.9780 C.3     1  UNL1        0.0897
     52 C          63.0714   86.7014   16.9918 C.3     1  UNL1        0.0897
     53 N          63.8381   86.0096   15.9038 N.3     1  UNL1       -0.2699
     54 C          64.4655   86.8112   14.8021 C.3     1  UNL1        0.0897
     55 C          64.3262   88.3048   14.7884 C.3     1  UNL1        0.0897
@<TRIPOS>BOND
     1    49    50    1
     2    50    51    1
     3    51    52    1
     4    52    53    1
     5    53    48    1
     6    48    47    1
     7    47    43    1
     8    43    44    2
     9    43    45   am
    10    45    33    1
    11    33    34   ar
    12    34    35   ar
    13    35    36   ar
    14    36    37   ar
    15    37    38   ar
    16    38    39   ar
    17    39    40   ar
    18    40    31    1
    19    31     1    1
    20     1     2   ar
    21     2     3   ar
    22     3     4   ar
    23     4     7    1
    24     7     8   am
    25     8     9    2
    26     8    10   am
    27    10    13    1
    28    13    14   ar
    29    14    15   ar
    30    15    27    1
    31    27    28    1
    32    27    29    1
    33    27    30    1
    34    15    16   ar
    35    16    17   ar
    36    17    18    1
    37    18    19   ar
    38    19    20   ar
    39    20    21   ar
    40    21    22   ar
    41    22    23    1
    42    22    24   ar
    43     4     5   ar
    44     5     6   ar
    45    40    41   ar
    46    41    42   ar
    47    53    54    1
    48    54    55    1
    49    55    50    1
    50    42    33   ar
    51    41    36   ar
    52     6     1   ar
    53    17    13   ar
    54    24    18   ar
    55    45    46    1
    56    31    32    1
    57     7    11    1
    58    10    12    1
    59    23    25    1
    60    23    26    1
@<TRIPOS>MOLECULE
*****
 55 60 0 0 0
SMALL
GASTEIGER

@<TRIPOS>ATOM
      1 C          58.9393   90.0547    6.2201 C.ar    1  UNL1        0.0494
      2 C          60.3557   90.3735    5.8431 C.ar    1  UNL1        0.0159
      3 C          60.6428   91.4849    4.8776 C.ar    1  UNL1        0.0160
      4 C          59.5136   92.2776    4.2891 C.ar    1  UNL1        0.0517
      5 C          58.0971   91.9589    4.6661 C.ar    1  UNL1        0.0160
      6 C          57.8099   90.8474    5.6316 C.ar    1  UNL1        0.0159
      7 N          59.8007   93.3891    3.3236 N.am    1  UNL1       -0.2680
      8 C          60.1838   93.0729    1.9082 C.2     1  UNL1        0.3092
      9 O          60.2797   91.6452    1.4584 O.2     1  UNL1       -0.2521
     10 N          60.4709   94.1843    0.9427 N.am    1  UNL1       -0.2533
     11 H          59.7377   94.3262    3.6188 H       1  UNL1        0.1564
     12 H          60.4080   95.1214    1.2380 H       1  UNL1        0.1578
     13 C          60.8540   93.8681   -0.4726 C.ar    1  UNL1        0.1380
     14 C          62.2452   93.6173   -0.9745 C.ar    1  UNL1        0.0509
     15 C          62.1642   93.3413   -2.4466 C.ar    1  UNL1        0.0810
     16 N          60.7230   93.4215   -2.8547 N.ar    1  UNL1       -0.1683
     17 N          59.9132   93.7471   -1.6346 N.ar    1  UNL1       -0.2162
     18 C          58.4242   93.9210   -1.5853 C.ar    1  UNL1        0.0854
     19 C          57.5231   92.7727   -1.9309 C.ar    1  UNL1        0.0193
     20 C          56.0341   92.9466   -1.8816 C.ar    1  UNL1        0.0028
     21 C          55.4461   94.2690   -1.4867 C.ar    1  UNL1        0.0142
     22 C          56.3472   95.4173   -1.1412 C.ar    1  UNL1        0.0430
     23 N          55.7592   96.7395   -0.7464 N.pl3   1  UNL1       -0.3570
     24 C          57.8363   95.2433   -1.1905 C.ar    1  UNL1        0.0333
     25 H          54.7819   96.8536   -0.7140 H       1  UNL1        0.1424
     26 H          56.3506   97.4932   -0.5196 H       1  UNL1        0.1424
     27 C          63.3213   93.0384   -3.3518 C.3     1  UNL1        0.0372
     28 C          62.6324   93.7581   -4.4732 C.3     1  UNL1        0.0060
     29 C          64.0101   92.3186   -2.2304 C.3     1  UNL1        0.0060
     30 C          64.4783   92.7354   -4.2570 C.3     1  UNL1        0.0060
     31 N          58.6521   88.9432    7.1856 N.pl3   1  UNL1       -0.2979
     32 H          57.8721   88.9998    7.7835 H       1  UNL1        0.1536
     33 C          61.6255   88.5156   10.5361 C.ar    1  UNL1        0.0505
     34 C          62.5269   87.3179   10.5906 C.ar    1  UNL1        0.0162
     35 C          62.4372   86.2627    9.5283 C.ar    1  UNL1        0.0205
     36 C          61.4460   86.4053    8.4114 C.ar    1  UNL1        0.0858
     37 N          61.3563   85.3501    7.3491 N.ar    1  UNL1       -0.2239
     38 C          60.3652   85.4926    6.2322 C.ar    1  UNL1        0.2000
     39 N          59.4638   86.6904    6.1777 N.ar    1  UNL1       -0.2089
     40 C          59.5535   87.7455    7.2401 C.ar    1  UNL1        0.1353
     41 C          60.5447   87.6030    8.3569 C.ar    1  UNL1        0.0506
     42 C          60.6344   88.6581    9.4192 C.ar    1  UNL1        0.0190
     43 C          62.7287   89.4447   12.6970 C.2     1  UNL1        0.2275
     44 O          63.6525   88.2635   12.7334 O.2     1  UNL1       -0.2747
     45 N          61.7153   89.5708   11.5985 N.am    1  UNL1       -0.2839
     46 H          61.1090   90.3461   11.5746 H       1  UNL1        0.1549
     47 C          62.8185   90.4999   13.7594 C.3     1  UNL1        0.1026
     48 C          64.1518   91.0767   14.1329 C.3     1  UNL1        0.0818
     49 C          67.0023   94.7467   10.3375 C.3     1  UNL1        0.0897
     50 N          66.2897   93.8292   11.2863 N.3     1  UNL1       -0.2691
     51 C          65.2832   92.8463   10.7657 C.3     1  UNL1        0.0897
     52 C          64.5706   91.9288   11.7146 C.3     1  UNL1        0.0897
     53 N          64.8644   91.9942   13.1841 N.3     1  UNL1       -0.2699
     54 C          65.8708   92.9770   13.7047 C.3     1  UNL1        0.0897
     55 C          66.5835   93.8946   12.7558 C.3     1  UNL1        0.0897
@<TRIPOS>BOND
     1    49    50    1
     2    50    51    1
     3    51    52    1
     4    52    53    1
     5    53    48    1
     6    48    47    1
     7    47    43    1
     8    43    44    2
     9    43    45   am
    10    45    33    1
    11    33    34   ar
    12    34    35   ar
    13    35    36   ar
    14    36    37   ar
    15    37    38   ar
    16    38    39   ar
    17    39    40   ar
    18    40    31    1
    19    31     1    1
    20     1     2   ar
    21     2     3   ar
    22     3     4   ar
    23     4     7    1
    24     7     8   am
    25     8     9    2
    26     8    10   am
    27    10    13    1
    28    13    14   ar
    29    14    15   ar
    30    15    27    1
    31    27    28    1
    32    27    29    1
    33    27    30    1
    34    15    16   ar
    35    16    17   ar
    36    17    18    1
    37    18    19   ar
    38    19    20   ar
    39    20    21   ar
    40    21    22   ar
    41    22    23    1
    42    22    24   ar
    43     4     5   ar
    44     5     6   ar
    45    40    41   ar
    46    41    42   ar
    47    53    54    1
    48    54    55    1
    49    55    50    1
    50    42    33   ar
    51    41    36   ar
    52     6     1   ar
    53    17    13   ar
    54    24    18   ar
    55    45    46    1
    56    31    32    1
    57     7    11    1
    58    10    12    1
    59    23    25    1
    60    23    26    1
@<TRIPOS>MOLECULE
*****
 55 60 0 0 0
SMALL
GASTEIGER

@<TRIPOS>ATOM
      1 C          59.7261   89.4489    7.1366 C.ar    1  UNL1        0.0494
      2 C          60.7882   90.1150    6.3130 C.ar    1  UNL1        0.0159
      3 C          60.4026   90.9871    5.1551 C.ar    1  UNL1        0.0160
      4 C          58.9550   91.1930    4.8207 C.ar    1  UNL1        0.0517
      5 C          57.8928   90.5269    5.6442 C.ar    1  UNL1        0.0160
      6 C          58.2784   89.6548    6.8022 C.ar    1  UNL1        0.0159
      7 N          58.5694   92.0651    3.6628 N.am    1  UNL1       -0.2680
      8 C          59.6244   92.5876    2.7334 C.2     1  UNL1        0.3092
      9 O          61.0651   92.2379    2.9619 O.2     1  UNL1       -0.2521
     10 N          59.2389   93.4597    1.5754 N.am    1  UNL1       -0.2533
     11 H          57.6238   92.2946    3.5128 H       1  UNL1        0.1564
     12 H          58.2933   93.6891    1.4255 H       1  UNL1        0.1578
     13 C          60.2939   93.9821    0.6460 C.ar    1  UNL1        0.1380
     14 C          61.6946   94.3614    1.0262 C.ar    1  UNL1        0.0509
     15 C          62.4000   94.8307   -0.2116 C.ar    1  UNL1        0.0810
     16 N          61.4353   94.7414   -1.3569 N.ar    1  UNL1       -0.1683
     17 N          60.1337   94.2170   -0.8268 N.ar    1  UNL1       -0.2162
     18 C          58.8902   93.9707   -1.6288 C.ar    1  UNL1        0.0854
     19 C          57.8417   95.0382   -1.7338 C.ar    1  UNL1        0.0193
     20 C          56.5983   94.7920   -2.5357 C.ar    1  UNL1        0.0028
     21 C          56.4034   93.4781   -3.2327 C.ar    1  UNL1        0.0142
     22 C          57.4519   92.4105   -3.1277 C.ar    1  UNL1        0.0430
     23 N          57.2568   91.0967   -3.8247 N.pl3   1  UNL1       -0.3570
     24 C          58.6953   92.6568   -2.3258 C.ar    1  UNL1        0.0333
     25 H          56.4407   90.9351   -4.3511 H       1  UNL1        0.1424
     26 H          57.9450   90.3960   -3.7558 H       1  UNL1        0.1424
     27 C          63.8205   95.3057   -0.2904 C.3     1  UNL1        0.0372
     28 C          63.4185   96.3402   -1.2995 C.3     1  UNL1        0.0060
     29 C          64.2224   94.2713    0.7187 C.3     1  UNL1        0.0060
     30 C          65.2411   95.7809   -0.3692 C.3     1  UNL1        0.0060
     31 N          60.1117   88.5768    8.2945 N.pl3   1  UNL1       -0.2979
     32 H          59.8794   87.6201    8.2889 H       1  UNL1        0.1536
     33 C          62.3279   85.8817   11.1362 C.ar    1  UNL1        0.0505
     34 C          63.0673   86.4672   12.3025 C.ar    1  UNL1        0.0162
     35 C          63.0680   87.9511   12.5216 C.ar    1  UNL1        0.0205
     36 C          62.3292   88.8495   11.5744 C.ar    1  UNL1        0.0858
     37 N          62.3299   90.3334   11.7935 N.ar    1  UNL1       -0.2239
     38 C          61.5912   91.2318   10.8463 C.ar    1  UNL1        0.2000
     39 N          60.8518   90.6462    9.6799 N.ar    1  UNL1       -0.2089
     40 C          60.8511   89.1623    9.4608 C.ar    1  UNL1        0.1353
     41 C          61.5898   88.2639   10.4080 C.ar    1  UNL1        0.0506
     42 C          61.5891   86.7801   10.1889 C.ar    1  UNL1        0.0190
     43 C          63.2115   83.7944    9.8664 C.2     1  UNL1        0.2275
     44 O          64.0966   84.6749    9.0349 O.2     1  UNL1       -0.2747
     45 N          62.3272   84.3978   10.9170 N.am    1  UNL1       -0.2839
     46 H          61.7463   83.8198   11.4627 H       1  UNL1        0.1549
     47 C          63.2108   82.3104    9.6472 C.3     1  UNL1        0.1026
     48 C          63.3135   81.3792   10.8186 C.3     1  UNL1        0.0818
     49 C          62.9883   83.5405   16.4064 C.3     1  UNL1        0.0897
     50 N          63.0696   83.0002   15.0094 N.3     1  UNL1       -0.2691
     51 C          64.2568   83.3190   14.1499 C.3     1  UNL1        0.0897
     52 C          64.3381   82.7787   12.7530 C.3     1  UNL1        0.0897
     53 N          63.2322   81.9195   12.2155 N.3     1  UNL1       -0.2699
     54 C          62.0450   81.6007   13.0751 C.3     1  UNL1        0.0897
     55 C          61.9637   82.1411   14.4721 C.3     1  UNL1        0.0897
@<TRIPOS>BOND
     1    49    50    1
     2    50    51    1
     3    51    52    1
     4    52    53    1
     5    53    48    1
     6    48    47    1
     7    47    43    1
     8    43    44    2
     9    43    45   am
    10    45    33    1
    11    33    34   ar
    12    34    35   ar
    13    35    36   ar
    14    36    37   ar
    15    37    38   ar
    16    38    39   ar
    17    39    40   ar
    18    40    31    1
    19    31     1    1
    20     1     2   ar
    21     2     3   ar
    22     3     4   ar
    23     4     7    1
    24     7     8   am
    25     8     9    2
    26     8    10   am
    27    10    13    1
    28    13    14   ar
    29    14    15   ar
    30    15    27    1
    31    27    28    1
    32    27    29    1
    33    27    30    1
    34    15    16   ar
    35    16    17   ar
    36    17    18    1
    37    18    19   ar
    38    19    20   ar
    39    20    21   ar
    40    21    22   ar
    41    22    23    1
    42    22    24   ar
    43     4     5   ar
    44     5     6   ar
    45    40    41   ar
    46    41    42   ar
    47    53    54    1
    48    54    55    1
    49    55    50    1
    50    42    33   ar
    51    41    36   ar
    52     6     1   ar
    53    17    13   ar
    54    24    18   ar
    55    45    46    1
    56    31    32    1
    57     7    11    1
    58    10    12    1
    59    23    25    1
    60    23    26    1
