@<TRIPOS>MOLECULE
*****
 26 29 0 0 0
SMALL
GASTEIGER

@<TRIPOS>ATOM
      1 C          62.6867   86.0231   11.5092 C.3     1  UNL1        0.0991
      2 C          63.3818   81.5787   11.3902 C.ar    1  UNL1       -0.0000
      3 C          64.1752   82.4861   10.4974 C.ar    1  UNL1       -0.0003
      4 C          63.9435   83.9675   10.5371 C.ar    1  UNL1       -0.0029
      5 C          62.9184   84.5416   11.4695 C.ar    1  UNL1       -0.0061
      6 C          62.1250   83.6342   12.3623 C.ar    1  UNL1       -0.0029
      7 C          62.3567   82.1528   12.3226 C.ar    1  UNL1       -0.0003
      8 N          63.2781   86.8453   12.6155 N.3     1  UNL1       -0.2690
      9 C          63.8145   86.1737   13.8448 C.3     1  UNL1        0.0724
     10 C          64.4060   86.9960   14.9512 C.3     1  UNL1        0.0174
     11 C          64.4610   88.4899   14.8283 C.3     1  UNL1        0.0029
     12 C          63.9246   89.1616   13.5990 C.3     1  UNL1        0.0174
     13 C          63.3332   88.3393   12.4926 C.3     1  UNL1        0.0724
     14 C          61.8636   86.6823   10.4425 C.3     1  UNL1        0.0991
     15 C          61.7412   86.0466    9.0894 C.ar    1  UNL1       -0.0061
     16 C          62.9551   85.4804    8.4142 C.ar    1  UNL1       -0.0029
     17 C          62.8327   84.8447    7.0611 C.ar    1  UNL1       -0.0003
     18 C          61.4963   84.7751    6.3832 C.ar    1  UNL1       -0.0000
     19 C          60.2825   85.3413    7.0585 C.ar    1  UNL1       -0.0003
     20 C          60.4049   85.9770    8.4116 C.ar    1  UNL1       -0.0029
     21 N          61.1628   87.9773   10.7289 N.3     1  UNL1       -0.2690
     22 C          61.6332   89.2444   10.0783 C.3     1  UNL1        0.0724
     23 C          60.9325   90.5394   10.3647 C.3     1  UNL1        0.0174
     24 C          59.7613   90.5673   11.3016 C.3     1  UNL1        0.0029
     25 C          59.2910   89.3002   11.9521 C.3     1  UNL1        0.0174
     26 C          59.9917   88.0052   11.6657 C.3     1  UNL1        0.0724
@<TRIPOS>BOND
     1     2     3   ar
     2     3     4   ar
     3     4     5   ar
     4     5     1    1
     5     1    14    1
     6    14    15    1
     7    15    16   ar
     8    16    17   ar
     9    17    18   ar
    10    18    19   ar
    11    19    20   ar
    12    14    21    1
    13    21    22    1
    14    22    23    1
    15    23    24    1
    16    24    25    1
    17    25    26    1
    18     1     8    1
    19     8     9    1
    20     9    10    1
    21    10    11    1
    22    11    12    1
    23    12    13    1
    24     5     6   ar
    25     6     7   ar
    26     7     2   ar
    27    20    15   ar
    28    26    21    1
    29    13     8    1
@<TRIPOS>MOLECULE
*****
 26 29 0 0 0
SMALL
GASTEIGER

@<TRIPOS>ATOM
      1 C          61.8774   86.6775   10.4412 C.3     1  UNL1        0.0991
      2 C          61.4950   84.7621    6.3872 C.ar    1  UNL1       -0.0000
      3 C          60.2833   85.3279    7.0667 C.ar    1  UNL1       -0.0003
      4 C          60.4108   85.9664    8.4180 C.ar    1  UNL1       -0.0029
      5 C          61.7499   86.0391    9.0898 C.ar    1  UNL1       -0.0061
      6 C          62.9616   85.4733    8.4103 C.ar    1  UNL1       -0.0029
      7 C          62.8341   84.8348    7.0590 C.ar    1  UNL1       -0.0003
      8 N          61.1928   87.9823   10.7218 N.3     1  UNL1       -0.2690
      9 C          60.0067   88.0249   11.6390 C.3     1  UNL1        0.0724
     10 C          59.3220   89.3297   11.9196 C.3     1  UNL1        0.0174
     11 C          59.8235   90.5919   11.2830 C.3     1  UNL1        0.0029
     12 C          61.0096   90.5494   10.3658 C.3     1  UNL1        0.0174
     13 C          61.6943   89.2446   10.0852 C.3     1  UNL1        0.0724
     14 C          62.6895   86.0112   11.5119 C.3     1  UNL1        0.0991
     15 C          62.9114   84.5283   11.4714 C.ar    1  UNL1       -0.0061
     16 C          63.9386   83.9486   10.5446 C.ar    1  UNL1       -0.0029
     17 C          64.1605   82.4657   10.5042 C.ar    1  UNL1       -0.0003
     18 C          63.3552   81.5624   11.3906 C.ar    1  UNL1       -0.0000
     19 C          62.3281   82.1421   12.3174 C.ar    1  UNL1       -0.0003
     20 C          62.1062   83.6250   12.3578 C.ar    1  UNL1       -0.0029
     21 N          63.2798   86.8279   12.6231 N.3     1  UNL1       -0.2690
     22 C          63.8115   86.1502   13.8511 C.3     1  UNL1        0.0724
     23 C          64.4018   86.9667   14.9623 C.3     1  UNL1        0.0174
     24 C          64.4604   88.4611   14.8455 C.3     1  UNL1        0.0029
     25 C          63.9287   89.1388   13.6175 C.3     1  UNL1        0.0174
     26 C          63.3384   88.3221   12.5063 C.3     1  UNL1        0.0724
@<TRIPOS>BOND
     1     2     3   ar
     2     3     4   ar
     3     4     5   ar
     4     5     1    1
     5     1    14    1
     6    14    15    1
     7    15    16   ar
     8    16    17   ar
     9    17    18   ar
    10    18    19   ar
    11    19    20   ar
    12    14    21    1
    13    21    22    1
    14    22    23    1
    15    23    24    1
    16    24    25    1
    17    25    26    1
    18     1     8    1
    19     8     9    1
    20     9    10    1
    21    10    11    1
    22    11    12    1
    23    12    13    1
    24     5     6   ar
    25     6     7   ar
    26     7     2   ar
    27    20    15   ar
    28    26    21    1
    29    13     8    1
@<TRIPOS>MOLECULE
*****
 26 29 0 0 0
SMALL
GASTEIGER

@<TRIPOS>ATOM
      1 C          62.6836   86.0207   11.5161 C.3     1  UNL1        0.0991
      2 C          63.3694   81.5748   11.4023 C.ar    1  UNL1       -0.0000
      3 C          62.3409   82.1515   12.3293 C.ar    1  UNL1       -0.0003
      4 C          62.1123   83.6335   12.3673 C.ar    1  UNL1       -0.0029
      5 C          62.9122   84.5387   11.4782 C.ar    1  UNL1       -0.0061
      6 C          63.9408   83.9620   10.5512 C.ar    1  UNL1       -0.0029
      7 C          64.1694   82.4800   10.5133 C.ar    1  UNL1       -0.0003
      8 N          63.2790   86.8434   12.6200 N.3     1  UNL1       -0.2690
      9 C          63.3334   88.3374   12.4964 C.3     1  UNL1        0.0724
     10 C          63.9288   89.1601   13.6004 C.3     1  UNL1        0.0174
     11 C          64.4698   88.4889   14.8279 C.3     1  UNL1        0.0029
     12 C          64.4154   86.9949   14.9515 C.3     1  UNL1        0.0174
     13 C          63.8201   86.1722   13.8476 C.3     1  UNL1        0.0724
     14 C          61.8596   86.6800   10.4502 C.3     1  UNL1        0.0991
     15 C          61.7401   86.0469    9.0956 C.ar    1  UNL1       -0.0061
     16 C          62.9563   85.4861    8.4199 C.ar    1  UNL1       -0.0029
     17 C          62.8367   84.8529    7.0653 C.ar    1  UNL1       -0.0003
     18 C          61.5011   84.7806    6.3864 C.ar    1  UNL1       -0.0000
     19 C          60.2850   85.3415    7.0621 C.ar    1  UNL1       -0.0003
     20 C          60.4045   85.9746    8.4167 C.ar    1  UNL1       -0.0029
     21 N          61.1551   87.9725   10.7387 N.3     1  UNL1       -0.2690
     22 C          59.9882   87.9965   11.6810 C.3     1  UNL1        0.0724
     23 C          59.2837   89.2889   11.9696 C.3     1  UNL1        0.0174
     24 C          59.7461   90.5574   11.3159 C.3     1  UNL1        0.0029
     25 C          60.9130   90.5334   10.3736 C.3     1  UNL1        0.0174
     26 C          61.6175   89.2409   10.0851 C.3     1  UNL1        0.0724
@<TRIPOS>BOND
     1     2     3   ar
     2     3     4   ar
     3     4     5   ar
     4     5     1    1
     5     1    14    1
     6    14    15    1
     7    15    16   ar
     8    16    17   ar
     9    17    18   ar
    10    18    19   ar
    11    19    20   ar
    12    14    21    1
    13    21    22    1
    14    22    23    1
    15    23    24    1
    16    24    25    1
    17    25    26    1
    18     1     8    1
    19     8     9    1
    20     9    10    1
    21    10    11    1
    22    11    12    1
    23    12    13    1
    24     5     6   ar
    25     6     7   ar
    26     7     2   ar
    27    20    15   ar
    28    26    21    1
    29    13     8    1
@<TRIPOS>MOLECULE
*****
 26 29 0 0 0
SMALL
GASTEIGER

@<TRIPOS>ATOM
      1 C          61.8652   86.6829   10.4462 C.3     1  UNL1        0.0991
      2 C          61.5223   84.7619    6.3913 C.ar    1  UNL1       -0.0000
      3 C          62.8566   84.8449    7.0715 C.ar    1  UNL1       -0.0003
      4 C          62.9709   85.4852    8.4231 C.ar    1  UNL1       -0.0029
      5 C          61.7509   86.0426    9.0946 C.ar    1  UNL1       -0.0061
      6 C          60.4166   85.9595    8.4144 C.ar    1  UNL1       -0.0029
      7 C          60.3023   85.3192    7.0628 C.ar    1  UNL1       -0.0003
      8 N          61.1609   87.9776   10.7247 N.3     1  UNL1       -0.2690
      9 C          61.6273   89.2419   10.0659 C.3     1  UNL1        0.0724
     10 C          60.9229   90.5367   10.3445 C.3     1  UNL1        0.0174
     11 C          59.7522   90.5671   11.2818 C.3     1  UNL1        0.0029
     12 C          59.2859   89.3028   11.9406 C.3     1  UNL1        0.0174
     13 C          59.9902   88.0081   11.6621 C.3     1  UNL1        0.0724
     14 C          62.6838   86.0285   11.5193 C.3     1  UNL1        0.0991
     15 C          62.9099   84.5459   11.4911 C.ar    1  UNL1       -0.0061
     16 C          62.1036   83.6472   12.3812 C.ar    1  UNL1       -0.0029
     17 C          62.3297   82.1646   12.3530 C.ar    1  UNL1       -0.0003
     18 C          63.3622   81.5808   11.4347 C.ar    1  UNL1       -0.0000
     19 C          64.1685   82.4795   10.5447 C.ar    1  UNL1       -0.0003
     20 C          63.9424   83.9621   10.5729 C.ar    1  UNL1       -0.0029
     21 N          63.2764   86.8568   12.6207 N.3     1  UNL1       -0.2690
     22 C          63.3312   88.3500   12.4898 C.3     1  UNL1        0.0724
     23 C          63.9237   89.1782   13.5911 C.3     1  UNL1        0.0174
     24 C          64.4614   88.5132   14.8235 C.3     1  UNL1        0.0029
     25 C          64.4066   87.0199   14.9544 C.3     1  UNL1        0.0174
     26 C          63.8141   86.1917   13.8530 C.3     1  UNL1        0.0724
@<TRIPOS>BOND
     1     2     3   ar
     2     3     4   ar
     3     4     5   ar
     4     5     1    1
     5     1    14    1
     6    14    15    1
     7    15    16   ar
     8    16    17   ar
     9    17    18   ar
    10    18    19   ar
    11    19    20   ar
    12    14    21    1
    13    21    22    1
    14    22    23    1
    15    23    24    1
    16    24    25    1
    17    25    26    1
    18     1     8    1
    19     8     9    1
    20     9    10    1
    21    10    11    1
    22    11    12    1
    23    12    13    1
    24     5     6   ar
    25     6     7   ar
    26     7     2   ar
    27    20    15   ar
    28    26    21    1
    29    13     8    1
@<TRIPOS>MOLECULE
*****
 26 29 0 0 0
SMALL
GASTEIGER

@<TRIPOS>ATOM
      1 C          65.0373   91.7725   12.4358 C.3     1  UNL1        0.0991
      2 C          61.2627   89.9363   10.8138 C.ar    1  UNL1       -0.0000
      3 C          62.3000   90.4731    9.8728 C.ar    1  UNL1       -0.0003
      4 C          63.5582   91.0852   10.4134 C.ar    1  UNL1       -0.0029
      5 C          63.7791   91.1604   11.8951 C.ar    1  UNL1       -0.0061
      6 C          62.7417   90.6236   12.8362 C.ar    1  UNL1       -0.0029
      7 C          61.4835   90.0115   12.2956 C.ar    1  UNL1       -0.0003
      8 N          65.8078   92.7577   11.6079 N.3     1  UNL1       -0.2690
      9 C          65.7046   94.2255   11.8997 C.3     1  UNL1        0.0724
     10 C          66.4752   95.2107   11.0717 C.3     1  UNL1        0.0174
     11 C          67.3491   94.7283    9.9521 C.3     1  UNL1        0.0029
     12 C          67.4523   93.2605    9.6603 C.3     1  UNL1        0.0174
     13 C          66.6817   92.2753   10.4882 C.3     1  UNL1        0.0724
     14 C          65.5249   91.3993   13.8043 C.3     1  UNL1        0.0991
     15 C          64.7545   90.4138   14.6322 C.ar    1  UNL1       -0.0061
     16 C          63.9180   90.8920   15.7819 C.ar    1  UNL1       -0.0029
     17 C          63.1476   89.9065   16.6097 C.ar    1  UNL1       -0.0003
     18 C          63.2136   88.4429   16.2878 C.ar    1  UNL1       -0.0000
     19 C          64.0500   87.9648   15.1381 C.ar    1  UNL1       -0.0003
     20 C          64.8205   88.9503   14.3103 C.ar    1  UNL1       -0.0029
     21 N          66.7830   92.0116   14.3451 N.3     1  UNL1       -0.2690
     22 C          66.7181   92.9512   15.5126 C.3     1  UNL1        0.0724
     23 C          67.9761   93.5635   16.0534 C.3     1  UNL1        0.0174
     24 C          69.2991   93.2362   15.4266 C.3     1  UNL1        0.0029
     25 C          69.3639   92.2967   14.2591 C.3     1  UNL1        0.0174
     26 C          68.1059   91.6844   13.7184 C.3     1  UNL1        0.0724
@<TRIPOS>BOND
     1     2     3   ar
     2     3     4   ar
     3     4     5   ar
     4     5     1    1
     5     1    14    1
     6    14    15    1
     7    15    16   ar
     8    16    17   ar
     9    17    18   ar
    10    18    19   ar
    11    19    20   ar
    12    14    21    1
    13    21    22    1
    14    22    23    1
    15    23    24    1
    16    24    25    1
    17    25    26    1
    18     1     8    1
    19     8     9    1
    20     9    10    1
    21    10    11    1
    22    11    12    1
    23    12    13    1
    24     5     6   ar
    25     6     7   ar
    26     7     2   ar
    27    20    15   ar
    28    26    21    1
    29    13     8    1
@<TRIPOS>MOLECULE
*****
 26 29 0 0 0
SMALL
GASTEIGER

@<TRIPOS>ATOM
      1 C          65.5197   91.4096   13.8111 C.3     1  UNL1        0.0991
      2 C          63.2048   88.4633   16.3033 C.ar    1  UNL1       -0.0000
      3 C          64.0381   87.9812   15.1531 C.ar    1  UNL1       -0.0003
      4 C          64.8097   88.9632   14.3223 C.ar    1  UNL1       -0.0029
      5 C          64.7481   90.4275   14.6419 C.ar    1  UNL1       -0.0061
      6 C          63.9148   90.9096   15.7921 C.ar    1  UNL1       -0.0029
      7 C          63.1432   89.9276   16.6228 C.ar    1  UNL1       -0.0003
      8 N          66.7771   92.0239   14.3511 N.3     1  UNL1       -0.2690
      9 C          68.1000   91.6999   13.7226 C.3     1  UNL1        0.0724
     10 C          69.3574   92.3142   14.2626 C.3     1  UNL1        0.0174
     11 C          69.2919   93.2526   15.4310 C.3     1  UNL1        0.0029
     12 C          67.9690   93.5766   16.0595 C.3     1  UNL1        0.0174
     13 C          66.7116   92.9623   15.5195 C.3     1  UNL1        0.0724
     14 C          65.0340   91.7773   12.4405 C.3     1  UNL1        0.0991
     15 C          63.7780   91.1610   11.8994 C.ar    1  UNL1       -0.0061
     16 C          62.7396   90.6256   12.8403 C.ar    1  UNL1       -0.0029
     17 C          61.4837   90.0093   12.2992 C.ar    1  UNL1       -0.0003
     18 C          61.2662   89.9282   10.8173 C.ar    1  UNL1       -0.0000
     19 C          62.3046   90.4636    9.8764 C.ar    1  UNL1       -0.0003
     20 C          63.5605   91.0799   10.4175 C.ar    1  UNL1       -0.0029
     21 N          65.8041   92.7615   11.6108 N.3     1  UNL1       -0.2690
     22 C          66.6918   92.2763   10.5032 C.3     1  UNL1        0.0724
     23 C          67.4619   93.2604    9.6736 C.3     1  UNL1        0.0174
     24 C          67.3445   94.7298    9.9515 C.3     1  UNL1        0.0029
     25 C          66.4569   95.2150   11.0590 C.3     1  UNL1        0.0174
     26 C          65.6867   94.2308   11.8887 C.3     1  UNL1        0.0724
@<TRIPOS>BOND
     1     2     3   ar
     2     3     4   ar
     3     4     5   ar
     4     5     1    1
     5     1    14    1
     6    14    15    1
     7    15    16   ar
     8    16    17   ar
     9    17    18   ar
    10    18    19   ar
    11    19    20   ar
    12    14    21    1
    13    21    22    1
    14    22    23    1
    15    23    24    1
    16    24    25    1
    17    25    26    1
    18     1     8    1
    19     8     9    1
    20     9    10    1
    21    10    11    1
    22    11    12    1
    23    12    13    1
    24     5     6   ar
    25     6     7   ar
    26     7     2   ar
    27    20    15   ar
    28    26    21    1
    29    13     8    1
@<TRIPOS>MOLECULE
*****
 26 29 0 0 0
SMALL
GASTEIGER

@<TRIPOS>ATOM
      1 C          65.0363   91.7820   12.4287 C.3     1  UNL1        0.0991
      2 C          61.2507   89.9601   10.8162 C.ar    1  UNL1       -0.0000
      3 C          61.4811   90.0232   12.2970 C.ar    1  UNL1       -0.0003
      4 C          62.7430   90.6305   12.8345 C.ar    1  UNL1       -0.0029
      5 C          63.7744   91.1747   11.8912 C.ar    1  UNL1       -0.0061
      6 C          63.5440   91.1117   10.4104 C.ar    1  UNL1       -0.0029
      7 C          62.2821   90.5044    9.8729 C.ar    1  UNL1       -0.0003
      8 N          65.8147   92.7555   11.5942 N.3     1  UNL1       -0.2690
      9 C          66.7118   92.2564   10.5005 C.3     1  UNL1        0.0724
     10 C          67.4902   93.2300    9.6661 C.3     1  UNL1        0.0174
     11 C          67.3716   94.7026    9.9254 C.3     1  UNL1        0.0029
     12 C          66.4746   95.2017   11.0191 C.3     1  UNL1        0.0174
     13 C          65.6961   94.2282   11.8535 C.3     1  UNL1        0.0724
     14 C          65.5197   91.4159   13.8006 C.3     1  UNL1        0.0991
     15 C          64.7530   90.4260   14.6266 C.ar    1  UNL1       -0.0061
     16 C          64.8263   88.9630   14.3034 C.ar    1  UNL1       -0.0029
     17 C          64.0596   87.9731   15.1294 C.ar    1  UNL1       -0.0003
     18 C          63.2195   88.4463   16.2785 C.ar    1  UNL1       -0.0000
     19 C          63.1462   89.9092   16.6016 C.ar    1  UNL1       -0.0003
     20 C          63.9129   90.8991   15.7756 C.ar    1  UNL1       -0.0029
     21 N          66.7699   92.0395   14.3465 N.3     1  UNL1       -0.2690
     22 C          68.0995   91.7163   13.7318 C.3     1  UNL1        0.0724
     23 C          69.3497   92.3400   14.2777 C.3     1  UNL1        0.0174
     24 C          69.2704   93.2868   15.4384 C.3     1  UNL1        0.0029
     25 C          67.9409   93.6100   16.0532 C.3     1  UNL1        0.0174
     26 C          66.6906   92.9864   15.5072 C.3     1  UNL1        0.0724
@<TRIPOS>BOND
     1     2     3   ar
     2     3     4   ar
     3     4     5   ar
     4     5     1    1
     5     1    14    1
     6    14    15    1
     7    15    16   ar
     8    16    17   ar
     9    17    18   ar
    10    18    19   ar
    11    19    20   ar
    12    14    21    1
    13    21    22    1
    14    22    23    1
    15    23    24    1
    16    24    25    1
    17    25    26    1
    18     1     8    1
    19     8     9    1
    20     9    10    1
    21    10    11    1
    22    11    12    1
    23    12    13    1
    24     5     6   ar
    25     6     7   ar
    26     7     2   ar
    27    20    15   ar
    28    26    21    1
    29    13     8    1
