@<TRIPOS>MOLECULE
*****
 34 36 0 0 0
SMALL
GASTEIGER

@<TRIPOS>ATOM
      1 C          64.8705   91.4178   13.1225 C.ar    1  UNL1       -0.0185
      2 C          64.2176   91.6435   11.7911 C.ar    1  UNL1       -0.0041
      3 C          64.6273   92.8110   10.9430 C.ar    1  UNL1        0.0057
      4 C          65.6900   93.7528   11.4265 C.ar    1  UNL1        0.0696
      5 C          66.3430   93.5271   12.7580 C.ar    1  UNL1        0.0095
      6 C          65.9332   92.3596   13.6059 C.ar    1  UNL1        0.0677
      7 C          63.2316   86.7479   16.5146 C.2     1  UNL1        0.2665
      8 O          62.7911   86.9681   17.9315 O.2     1  UNL1       -0.2683
      9 N          63.6413   87.9155   15.6666 N.am    1  UNL1       -0.2748
     10 C          63.6106   89.3030   16.2355 C.3     1  UNL1        0.0941
     11 C          64.0203   90.4705   15.3874 C.3     1  UNL1        0.0259
     12 C          64.4608   90.2503   13.9705 C.3     1  UNL1        0.0257
     13 C          64.4915   88.8627   13.4017 C.3     1  UNL1        0.0259
     14 C          64.0817   87.6953   14.2497 C.3     1  UNL1        0.0941
     15 C          65.7842   85.3270   15.0605 C.3     1  UNL1        0.1322
     16 N          64.4356   84.7072   15.2774 N.ar    1  UNL1       -0.3034
     17 C          64.0235   83.3255   14.8640 C.ar    1  UNL1        0.1787
     18 N          62.5955   83.1247   15.2769 N.ar    1  UNL1       -0.2222
     19 C          62.1250   84.3823   15.9455 C.ar    1  UNL1        0.1224
     20 C          63.2623   85.3604   15.9458 C.ar    1  UNL1        0.1347
     21 C          66.0998   94.9203   10.5785 C.2     1  UNL1        0.3078
     22 O          66.4094   96.2407   11.2194 O.2     1  UNL1       -0.2516
     23 N          66.1999   94.7673    9.0898 N.am    1  UNL1       -0.1708
     24 H          65.9967   93.9007    8.6692 H       1  UNL1        0.2545
     25 C          66.6097   95.9348    8.2417 C.2     1  UNL1        0.3751
     26 N          67.9119   96.6317    8.5038 N.pl3   1  UNL1       -0.1313
     27 N          65.7173   96.4053    7.1317 N.pl3   1  UNL1       -0.2906
     28 H          68.4976   96.3229    9.2323 H       1  UNL1        0.3060
     29 H          64.8627   95.9479    6.9597 H       1  UNL1        0.2545
     30 H          65.9863   97.1716    6.5751 H       1  UNL1        0.2545
     31 C          66.5861   92.1339   14.9374 C.3     1  UNL1        0.4183
     32 F          67.2391   91.9081   16.2688 F       1  UNL1       -0.1659
     33 F          67.5443   91.1692   14.3040 F       1  UNL1       -0.1659
     34 F          65.6280   93.0986   15.5709 F       1  UNL1       -0.1659
@<TRIPOS>BOND
     1    15    16    1
     2    16    17   ar
     3    17    18   ar
     4    18    19   ar
     5    19    20   ar
     6    20     7    1
     7     7     8    2
     8     7     9   am
     9     9    10    1
    10    10    11    1
    11    11    12    1
    12    12     1    1
    13     1     2   ar
    14     2     3   ar
    15     3     4   ar
    16     4    21    1
    17    21    22    2
    18    21    23   am
    19    23    25    1
    20    25    26    2
    21    25    27    1
    22     4     5   ar
    23     5     6   ar
    24     6    31    1
    25    31    32    1
    26    31    33    1
    27    31    34    1
    28    12    13    1
    29    13    14    1
    30    20    16   ar
    31    14     9    1
    32     6     1   ar
    33    23    24    1
    34    26    28    1
    35    27    29    1
    36    27    30    1
@<TRIPOS>MOLECULE
*****
 34 36 0 0 0
SMALL
GASTEIGER

@<TRIPOS>ATOM
      1 C          60.8742   87.1521    8.7077 C.ar    1  UNL1       -0.0185
      2 C          60.1198   86.6704    7.5040 C.ar    1  UNL1       -0.0041
      3 C          59.3447   87.6433    6.6658 C.ar    1  UNL1        0.0057
      4 C          59.3240   89.0980    7.0312 C.ar    1  UNL1        0.0696
      5 C          60.0784   89.5797    8.2349 C.ar    1  UNL1        0.0095
      6 C          60.8535   88.6068    9.0731 C.ar    1  UNL1        0.0677
      7 C          63.9747   83.2604   12.0606 C.2     1  UNL1        0.2665
      8 O          65.0064   82.3773   11.4237 O.2     1  UNL1       -0.2683
      9 N          63.1996   84.2334   11.2223 N.am    1  UNL1       -0.2748
     10 C          63.4561   84.3231    9.7472 C.3     1  UNL1        0.0941
     11 C          62.6810   85.2960    8.9090 C.3     1  UNL1        0.0259
     12 C          61.6493   86.1792    9.5460 C.3     1  UNL1        0.0257
     13 C          61.3928   86.0894   11.0211 C.3     1  UNL1        0.0259
     14 C          62.1679   85.1165   11.8593 C.3     1  UNL1        0.0941
     15 C          65.4765   84.9994   14.3780 C.3     1  UNL1        0.1322
     16 N          64.4084   83.9700   14.6010 N.ar    1  UNL1       -0.3034
     17 C          63.8432   83.5592   15.9283 C.ar    1  UNL1        0.1787
     18 N          62.8035   82.5060   15.6833 N.ar    1  UNL1       -0.2222
     19 C          62.7263   82.2659   14.2047 C.ar    1  UNL1        0.1224
     20 C          63.7182   83.1707   13.5358 C.ar    1  UNL1        0.1347
     21 C          58.5489   90.0709    6.1930 C.2     1  UNL1        0.3078
     22 O          57.0493   90.0363    6.1973 O.2     1  UNL1       -0.2516
     23 N          59.2734   91.0785    5.3505 N.am    1  UNL1       -0.1708
     24 H          60.2577   91.1012    5.3477 H       1  UNL1        0.2545
     25 C          58.4984   92.0515    4.5123 C.2     1  UNL1        0.3751
     26 N          57.1461   92.5186    4.9628 N.pl3   1  UNL1       -0.1313
     27 N          59.0756   92.5573    3.2235 N.pl3   1  UNL1       -0.2906
     28 H          56.7672   92.1867    5.8087 H       1  UNL1        0.3060
     29 H          59.9632   92.2506    2.9278 H       1  UNL1        0.2545
     30 H          58.5669   93.1959    2.6734 H       1  UNL1        0.2545
     31 C          61.6079   89.0885   10.2769 C.3     1  UNL1        0.4183
     32 F          62.3623   89.5702   11.4805 F       1  UNL1       -0.1659
     33 F          62.8947   88.9797    9.5138 F       1  UNL1       -0.1659
     34 F          60.3211   89.1972   11.0399 F       1  UNL1       -0.1659
@<TRIPOS>BOND
     1    15    16    1
     2    16    17   ar
     3    17    18   ar
     4    18    19   ar
     5    19    20   ar
     6    20     7    1
     7     7     8    2
     8     7     9   am
     9     9    10    1
    10    10    11    1
    11    11    12    1
    12    12     1    1
    13     1     2   ar
    14     2     3   ar
    15     3     4   ar
    16     4    21    1
    17    21    22    2
    18    21    23   am
    19    23    25    1
    20    25    26    2
    21    25    27    1
    22     4     5   ar
    23     5     6   ar
    24     6    31    1
    25    31    32    1
    26    31    33    1
    27    31    34    1
    28    12    13    1
    29    13    14    1
    30    20    16   ar
    31    14     9    1
    32     6     1   ar
    33    23    24    1
    34    26    28    1
    35    27    29    1
    36    27    30    1
@<TRIPOS>MOLECULE
*****
 34 36 0 0 0
SMALL
GASTEIGER

@<TRIPOS>ATOM
      1 C          64.7411   91.0765   13.1715 C.ar    1  UNL1       -0.0185
      2 C          65.8435   91.9715   13.6549 C.ar    1  UNL1       -0.0041
      3 C          66.2357   93.1779   12.8543 C.ar    1  UNL1        0.0057
      4 C          65.5255   93.4892   11.5703 C.ar    1  UNL1        0.0696
      5 C          64.4231   92.5941   11.0869 C.ar    1  UNL1        0.0095
      6 C          64.0309   91.3878   11.8875 C.ar    1  UNL1        0.0677
      7 C          63.1723   86.2512   16.3739 C.2     1  UNL1        0.2665
      8 O          62.7959   86.3996   17.8183 O.2     1  UNL1       -0.2683
      9 N          63.5645   87.4576   15.5733 N.am    1  UNL1       -0.2748
     10 C          63.5803   88.8123   16.2171 C.3     1  UNL1        0.0941
     11 C          63.9725   90.0186   15.4165 C.3     1  UNL1        0.0259
     12 C          64.3489   89.8702   13.9721 C.3     1  UNL1        0.0257
     13 C          64.3331   88.5155   13.3283 C.3     1  UNL1        0.0259
     14 C          63.9409   87.3092   14.1289 C.3     1  UNL1        0.0941
     15 C          65.6886   84.8088   14.8781 C.3     1  UNL1        0.1322
     16 N          64.3131   84.2335   15.0426 N.ar    1  UNL1       -0.3034
     17 C          63.8528   82.8942   14.5483 C.ar    1  UNL1        0.1787
     18 N          62.4116   82.7295   14.9304 N.ar    1  UNL1       -0.2222
     19 C          61.9813   83.9670   15.6608 C.ar    1  UNL1        0.1224
     20 C          63.1565   84.8965   15.7301 C.ar    1  UNL1        0.1347
     21 C          65.9177   94.6955   10.7697 C.2     1  UNL1        0.3078
     22 O          66.0129   96.0375   11.4331 O.2     1  UNL1       -0.2516
     23 N          66.2146   94.5599    9.3057 N.am    1  UNL1       -0.1708
     24 H          66.1521   93.6791    8.8703 H       1  UNL1        0.2545
     25 C          66.6068   95.7662    8.5050 C.2     1  UNL1        0.3751
     26 N          67.7819   96.5973    8.9277 N.pl3   1  UNL1       -0.1313
     27 N          65.8240   96.1414    7.2818 N.pl3   1  UNL1       -0.2906
     28 H          68.2956   96.3510    9.7306 H       1  UNL1        0.3060
     29 H          65.0528   95.5960    7.0044 H       1  UNL1        0.2545
     30 H          66.0814   96.9332    6.7563 H       1  UNL1        0.2545
     31 C          62.9285   90.4928   11.4041 C.3     1  UNL1        0.4183
     32 F          61.8262   89.5978   10.9207 F       1  UNL1       -0.1659
     33 F          62.1164   90.8381   12.6169 F       1  UNL1       -0.1659
     34 F          63.7407   90.1474   10.1912 F       1  UNL1       -0.1659
@<TRIPOS>BOND
     1    15    16    1
     2    16    17   ar
     3    17    18   ar
     4    18    19   ar
     5    19    20   ar
     6    20     7    1
     7     7     8    2
     8     7     9   am
     9     9    10    1
    10    10    11    1
    11    11    12    1
    12    12     1    1
    13     1     2   ar
    14     2     3   ar
    15     3     4   ar
    16     4    21    1
    17    21    22    2
    18    21    23   am
    19    23    25    1
    20    25    26    2
    21    25    27    1
    22     4     5   ar
    23     5     6   ar
    24     6    31    1
    25    31    32    1
    26    31    33    1
    27    31    34    1
    28    12    13    1
    29    13    14    1
    30    20    16   ar
    31    14     9    1
    32     6     1   ar
    33    23    24    1
    34    26    28    1
    35    27    29    1
    36    27    30    1
@<TRIPOS>MOLECULE
*****
 34 36 0 0 0
SMALL
GASTEIGER

@<TRIPOS>ATOM
      1 C          61.7930   92.9243    1.9316 C.ar    1  UNL1       -0.0185
      2 C          62.4956   91.9108    2.7856 C.ar    1  UNL1       -0.0041
      3 C          61.7716   91.2608    3.9272 C.ar    1  UNL1        0.0057
      4 C          60.3450   91.6243    4.2150 C.ar    1  UNL1        0.0696
      5 C          59.6425   92.6379    3.3610 C.ar    1  UNL1        0.0095
      6 C          60.3664   93.2878    2.2194 C.ar    1  UNL1        0.0677
      7 C          64.6890   95.5244   -2.6349 C.2     1  UNL1        0.2665
      8 O          65.7517   96.5477   -2.3638 O.2     1  UNL1       -0.2683
      9 N          63.9650   94.8744   -1.4932 N.am    1  UNL1       -0.2748
     10 C          64.3037   95.2476   -0.0805 C.3     1  UNL1        0.0941
     11 C          63.5797   94.5976    1.0611 C.3     1  UNL1        0.0259
     12 C          62.5170   93.5744    0.7900 C.3     1  UNL1        0.0257
     13 C          62.1782   93.2011   -0.6228 C.3     1  UNL1        0.0259
     14 C          62.9022   93.8511   -1.7644 C.3     1  UNL1        0.0941
     15 C          62.3307   96.8538   -4.4573 C.3     1  UNL1        0.1322
     16 N          63.2662   95.7622   -4.8853 N.ar    1  UNL1       -0.3034
     17 C          63.2820   95.0901   -6.2262 C.ar    1  UNL1        0.1787
     18 N          64.3758   94.0635   -6.2172 N.ar    1  UNL1       -0.2222
     19 C          65.0359   94.1013   -4.8708 C.ar    1  UNL1        0.1224
     20 C          64.3502   95.1512   -4.0477 C.ar    1  UNL1        0.1347
     21 C          59.6210   90.9744    5.3566 C.2     1  UNL1        0.3078
     22 O          58.1612   91.2451    5.5704 O.2     1  UNL1       -0.2516
     23 N          60.3568   90.0537    6.2844 N.am    1  UNL1       -0.1708
     24 H          61.3149   89.8760    6.1440 H       1  UNL1        0.2545
     25 C          59.6328   89.4036    7.4261 C.2     1  UNL1        0.3751
     26 N          58.5288   88.4252    7.1543 N.pl3   1  UNL1       -0.1313
     27 N          60.0129   89.7320    8.8394 N.pl3   1  UNL1       -0.2906
     28 H          58.2794   88.2097    6.2266 H       1  UNL1        0.3060
     29 H          60.7375   90.3742    9.0178 H       1  UNL1        0.2545
     30 H          59.5377   89.3054    9.5887 H       1  UNL1        0.2545
     31 C          59.6639   94.3014    1.3654 C.3     1  UNL1        0.4183
     32 F          58.9613   95.3148    0.5114 F       1  UNL1       -0.1659
     33 F          59.0893   93.1975    0.5280 F       1  UNL1       -0.1659
     34 F          60.2385   95.4053    2.2027 F       1  UNL1       -0.1659
@<TRIPOS>BOND
     1    15    16    1
     2    16    17   ar
     3    17    18   ar
     4    18    19   ar
     5    19    20   ar
     6    20     7    1
     7     7     8    2
     8     7     9   am
     9     9    10    1
    10    10    11    1
    11    11    12    1
    12    12     1    1
    13     1     2   ar
    14     2     3   ar
    15     3     4   ar
    16     4    21    1
    17    21    22    2
    18    21    23   am
    19    23    25    1
    20    25    26    2
    21    25    27    1
    22     4     5   ar
    23     5     6   ar
    24     6    31    1
    25    31    32    1
    26    31    33    1
    27    31    34    1
    28    12    13    1
    29    13    14    1
    30    20    16   ar
    31    14     9    1
    32     6     1   ar
    33    23    24    1
    34    26    28    1
    35    27    29    1
    36    27    30    1
@<TRIPOS>MOLECULE
*****
 34 36 0 0 0
SMALL
GASTEIGER

@<TRIPOS>ATOM
      1 C          60.9229   87.8986    9.4027 C.ar    1  UNL1       -0.0185
      2 C          60.4355   89.2869    9.6941 C.ar    1  UNL1       -0.0041
      3 C          59.7452   90.0795    8.6238 C.ar    1  UNL1        0.0057
      4 C          59.5425   89.4838    7.2622 C.ar    1  UNL1        0.0696
      5 C          60.0301   88.0955    6.9708 C.ar    1  UNL1        0.0095
      6 C          60.7203   87.3029    8.0411 C.ar    1  UNL1        0.0677
      7 C          63.6838   84.7282   13.6836 C.2     1  UNL1        0.2665
      8 O          64.6304   85.4081   14.6279 O.2     1  UNL1       -0.2683
      9 N          62.9936   85.5208   12.6134 N.am    1  UNL1       -0.2748
     10 C          63.2499   86.9934   12.4875 C.3     1  UNL1        0.0941
     11 C          62.5597   87.7859   11.4172 C.3     1  UNL1        0.0259
     12 C          61.6132   87.1060   10.4729 C.3     1  UNL1        0.0257
     13 C          61.3569   85.6334   10.5988 C.3     1  UNL1        0.0259
     14 C          62.0471   84.8409   11.6690 C.3     1  UNL1        0.0941
     15 C          64.7208   82.4178   11.6254 C.3     1  UNL1        0.1322
     16 N          63.9042   82.1936   12.8634 N.ar    1  UNL1       -0.3034
     17 C          63.4208   80.8682   13.3728 C.ar    1  UNL1        0.1787
     18 N          62.6454   81.1110   14.6337 N.ar    1  UNL1       -0.2222
     19 C          62.6495   82.5865   14.9036 C.ar    1  UNL1        0.1224
     20 C          63.4275   83.2556   13.8095 C.ar    1  UNL1        0.1347
     21 C          58.8523   90.2764    6.1920 C.2     1  UNL1        0.3078
     22 O          57.3862   90.0814    5.9419 O.2     1  UNL1       -0.2516
     23 N          59.6283   91.2639    5.3718 N.am    1  UNL1       -0.1708
     24 H          60.5905   91.3919    5.5360 H       1  UNL1        0.2545
     25 C          58.9381   92.0566    4.3015 C.2     1  UNL1        0.3751
     26 N          59.7336   92.9595    3.4061 N.pl3   1  UNL1       -0.1313
     27 N          57.4524   91.9463    4.1268 N.pl3   1  UNL1       -0.2906
     28 H          60.7088   93.0319    3.5208 H       1  UNL1        0.3060
     29 H          56.9303   91.3537    4.7145 H       1  UNL1        0.2545
     30 H          56.9995   92.4665    3.4243 H       1  UNL1        0.2545
     31 C          61.2078   85.9145    7.7497 C.3     1  UNL1        0.4183
     32 F          61.6952   84.5262    7.4583 F       1  UNL1       -0.1659
     33 F          59.7988   85.4764    7.4798 F       1  UNL1       -0.1659
     34 F          62.6167   86.3526    8.0195 F       1  UNL1       -0.1659
@<TRIPOS>BOND
     1    15    16    1
     2    16    17   ar
     3    17    18   ar
     4    18    19   ar
     5    19    20   ar
     6    20     7    1
     7     7     8    2
     8     7     9   am
     9     9    10    1
    10    10    11    1
    11    11    12    1
    12    12     1    1
    13     1     2   ar
    14     2     3   ar
    15     3     4   ar
    16     4    21    1
    17    21    22    2
    18    21    23   am
    19    23    25    1
    20    25    26    2
    21    25    27    1
    22     4     5   ar
    23     5     6   ar
    24     6    31    1
    25    31    32    1
    26    31    33    1
    27    31    34    1
    28    12    13    1
    29    13    14    1
    30    20    16   ar
    31    14     9    1
    32     6     1   ar
    33    23    24    1
    34    26    28    1
    35    27    29    1
    36    27    30    1
@<TRIPOS>MOLECULE
*****
 34 36 0 0 0
SMALL
GASTEIGER

@<TRIPOS>ATOM
      1 C          64.5734   89.4965   13.9625 C.ar    1  UNL1       -0.0185
      2 C          65.7754   90.1128   14.6146 C.ar    1  UNL1       -0.0041
      3 C          66.2053   91.4995   14.2370 C.ar    1  UNL1        0.0057
      4 C          65.4331   92.2697   13.2072 C.ar    1  UNL1        0.0696
      5 C          64.2310   91.6534   12.5551 C.ar    1  UNL1        0.0095
      6 C          63.8012   90.2668   12.9327 C.ar    1  UNL1        0.0677
      7 C          62.8540   83.9502   15.4731 C.2     1  UNL1        0.2665
      8 O          62.6140   83.6054   16.9131 O.2     1  UNL1       -0.2683
      9 N          63.2838   85.3368   15.0955 N.am    1  UNL1       -0.2748
     10 C          63.4737   86.3786   16.1578 C.3     1  UNL1        0.0941
     11 C          63.9035   87.7651   15.7801 C.3     1  UNL1        0.0259
     12 C          64.1435   88.1099   14.3401 C.3     1  UNL1        0.0257
     13 C          63.9537   87.0681   13.2778 C.3     1  UNL1        0.0259
     14 C          63.5238   85.6816   13.6555 C.3     1  UNL1        0.0941
     15 C          64.9132   83.3110   13.0235 C.3     1  UNL1        0.1322
     16 N          63.6106   82.6146   13.2848 N.ar    1  UNL1       -0.3034
     17 C          63.0259   81.5021   12.4660 C.ar    1  UNL1        0.1787
     18 N          61.7180   81.1083   13.0860 N.ar    1  UNL1       -0.2222
     19 C          61.4944   81.9774   14.2879 C.ar    1  UNL1        0.1224
     20 C          62.6641   82.9084   14.4108 C.ar    1  UNL1        0.1347
     21 C          65.8629   93.6563   12.8296 C.2     1  UNL1        0.3078
     22 O          66.4512   94.5675   13.8657 O.2     1  UNL1       -0.2516
     23 N          65.7045   94.1316   11.4158 N.am    1  UNL1       -0.1708
     24 H          65.3184   93.5336   10.7357 H       1  UNL1        0.2545
     25 C          66.1343   95.5183   11.0381 C.2     1  UNL1        0.3751
     26 N          65.6916   96.6911   11.8617 N.pl3   1  UNL1       -0.1313
     27 N          67.0067   95.7319    9.8368 N.pl3   1  UNL1       -0.2906
     28 H          65.1190   96.5509   12.6502 H       1  UNL1        0.3060
     29 H          67.2972   94.9621    9.2962 H       1  UNL1        0.2545
     30 H          67.2888   96.6420    9.5889 H       1  UNL1        0.2545
     31 C          62.5992   89.6504   12.2806 C.3     1  UNL1        0.4183
     32 F          61.3971   89.0341   11.6285 F       1  UNL1       -0.1659
     33 F          61.7947   89.9081   13.5201 F       1  UNL1       -0.1659
     34 F          63.4036   89.3927   11.0411 F       1  UNL1       -0.1659
@<TRIPOS>BOND
     1    15    16    1
     2    16    17   ar
     3    17    18   ar
     4    18    19   ar
     5    19    20   ar
     6    20     7    1
     7     7     8    2
     8     7     9   am
     9     9    10    1
    10    10    11    1
    11    11    12    1
    12    12     1    1
    13     1     2   ar
    14     2     3   ar
    15     3     4   ar
    16     4    21    1
    17    21    22    2
    18    21    23   am
    19    23    25    1
    20    25    26    2
    21    25    27    1
    22     4     5   ar
    23     5     6   ar
    24     6    31    1
    25    31    32    1
    26    31    33    1
    27    31    34    1
    28    12    13    1
    29    13    14    1
    30    20    16   ar
    31    14     9    1
    32     6     1   ar
    33    23    24    1
    34    26    28    1
    35    27    29    1
    36    27    30    1
@<TRIPOS>MOLECULE
*****
 34 36 0 0 0
SMALL
GASTEIGER

@<TRIPOS>ATOM
      1 C          60.9968   87.2008    8.7266 C.ar    1  UNL1       -0.0185
      2 C          60.8341   88.6158    9.1969 C.ar    1  UNL1       -0.0041
      3 C          60.0785   89.6030    8.3574 C.ar    1  UNL1        0.0057
      4 C          59.4856   89.1751    7.0477 C.ar    1  UNL1        0.0696
      5 C          59.6484   87.7600    6.5774 C.ar    1  UNL1        0.0095
      6 C          60.4040   86.7729    7.4169 C.ar    1  UNL1        0.0677
      7 C          64.0192   83.2523   12.0843 C.2     1  UNL1        0.2665
      8 O          65.0593   82.3736   11.4550 O.2     1  UNL1       -0.2683
      9 N          63.2636   84.2394   11.2449 N.am    1  UNL1       -0.2748
     10 C          63.5481   84.3478    9.7761 C.3     1  UNL1        0.0941
     11 C          62.7925   85.3350    8.9367 C.3     1  UNL1        0.0259
     12 C          61.7524   86.2137    9.5661 C.3     1  UNL1        0.0257
     13 C          61.4679   86.1053   11.0348 C.3     1  UNL1        0.0259
     14 C          62.2235   85.1181   11.8742 C.3     1  UNL1        0.0941
     15 C          65.4172   85.0199   14.4446 C.3     1  UNL1        0.1322
     16 N          64.3773   83.9563   14.6380 N.ar    1  UNL1       -0.3034
     17 C          63.7974   83.5186   15.9502 C.ar    1  UNL1        0.1787
     18 N          62.7964   82.4355   15.6763 N.ar    1  UNL1       -0.2222
     19 C          62.7577   82.2039   14.1948 C.ar    1  UNL1        0.1224
     20 C          63.7347   83.1438   13.5531 C.ar    1  UNL1        0.1347
     21 C          58.7301   90.1621    6.2082 C.2     1  UNL1        0.3078
     22 O          57.2308   90.1268    6.1759 O.2     1  UNL1       -0.2516
     23 N          59.4737   91.1845    5.4010 N.am    1  UNL1       -0.1708
     24 H          60.4577   91.2077    5.4222 H       1  UNL1        0.2545
     25 C          58.7181   92.1717    4.5615 C.2     1  UNL1        0.3751
     26 N          57.2817   92.4743    4.8700 N.pl3   1  UNL1       -0.1313
     27 N          59.3990   92.8562    3.4135 N.pl3   1  UNL1       -0.2906
     28 H          56.8349   92.0250    5.6235 H       1  UNL1        0.3060
     29 H          60.3417   92.6575    3.2110 H       1  UNL1        0.2545
     30 H          58.9031   93.5040    2.8625 H       1  UNL1        0.2545
     31 C          60.5667   85.3578    6.9466 C.3     1  UNL1        0.4183
     32 F          60.7295   83.9428    6.4764 F       1  UNL1       -0.1659
     33 F          61.9294   85.6910    6.4157 F       1  UNL1       -0.1659
     34 F          59.2040   85.0246    7.4776 F       1  UNL1       -0.1659
@<TRIPOS>BOND
     1    15    16    1
     2    16    17   ar
     3    17    18   ar
     4    18    19   ar
     5    19    20   ar
     6    20     7    1
     7     7     8    2
     8     7     9   am
     9     9    10    1
    10    10    11    1
    11    11    12    1
    12    12     1    1
    13     1     2   ar
    14     2     3   ar
    15     3     4   ar
    16     4    21    1
    17    21    22    2
    18    21    23   am
    19    23    25    1
    20    25    26    2
    21    25    27    1
    22     4     5   ar
    23     5     6   ar
    24     6    31    1
    25    31    32    1
    26    31    33    1
    27    31    34    1
    28    12    13    1
    29    13    14    1
    30    20    16   ar
    31    14     9    1
    32     6     1   ar
    33    23    24    1
    34    26    28    1
    35    27    29    1
    36    27    30    1
@<TRIPOS>MOLECULE
*****
 34 36 0 0 0
SMALL
GASTEIGER

@<TRIPOS>ATOM
      1 C          71.9653   77.2700   13.0973 C.ar    1  UNL1       -0.0185
      2 C          71.6846   77.2417   11.6241 C.ar    1  UNL1       -0.0041
      3 C          71.9277   78.4650   10.7906 C.ar    1  UNL1        0.0057
      4 C          72.4516   79.7164   11.4304 C.ar    1  UNL1        0.0696
      5 C          72.7324   79.7447   12.9037 C.ar    1  UNL1        0.0095
      6 C          72.4893   78.5215   13.7371 C.ar    1  UNL1        0.0677
      7 C          70.9927   72.3772   16.4312 C.2     1  UNL1        0.2665
      8 O          69.8687   72.3576   17.4243 O.2     1  UNL1       -0.2683
      9 N          71.2358   73.6004   15.5977 N.am    1  UNL1       -0.2748
     10 C          70.3550   74.8040   15.7573 C.3     1  UNL1        0.0941
     11 C          70.5982   76.0272   14.9239 C.3     1  UNL1        0.0259
     12 C          71.7222   76.0468   13.9308 C.3     1  UNL1        0.0257
     13 C          72.6030   74.8432   13.7711 C.3     1  UNL1        0.0259
     14 C          72.3598   73.6200   14.6046 C.3     1  UNL1        0.0941
     15 C          70.7643   70.1322   14.0738 C.3     1  UNL1        0.1322
     16 N          71.7685   70.1417   15.1880 N.ar    1  UNL1       -0.3034
     17 C          72.8441   69.1209   15.4142 C.ar    1  UNL1        0.1787
     18 N          73.6138   69.5221   16.6376 N.ar    1  UNL1       -0.2222
     19 C          73.0139   70.7907   17.1675 C.ar    1  UNL1        0.1224
     20 C          71.8735   71.1736   16.2716 C.ar    1  UNL1        0.1347
     21 C          72.6948   80.9396   10.5970 C.2     1  UNL1        0.3078
     22 O          73.6165   82.0141   11.0930 O.2     1  UNL1       -0.2516
     23 N          72.0162   81.0884    9.2676 N.am    1  UNL1       -0.1708
     24 H          71.4112   80.3832    8.9421 H       1  UNL1        0.2545
     25 C          72.2593   82.3117    8.4341 C.2     1  UNL1        0.3751
     26 N          72.4546   83.6435    9.0960 N.pl3   1  UNL1       -0.1313
     27 N          72.3072   82.2030    6.9389 N.pl3   1  UNL1       -0.2906
     28 H          72.4232   83.7148   10.0774 H       1  UNL1        0.3060
     29 H          72.1791   81.3289    6.5045 H       1  UNL1        0.2545
     30 H          72.4668   83.0059    6.3918 H       1  UNL1        0.2545
     31 C          72.7700   78.5497   15.2103 C.3     1  UNL1        0.4183
     32 F          73.0508   78.5779   16.6835 F       1  UNL1       -0.1659
     33 F          73.6325   77.3306   15.0693 F       1  UNL1       -0.1659
     34 F          71.9076   79.7688   15.3514 F       1  UNL1       -0.1659
@<TRIPOS>BOND
     1    15    16    1
     2    16    17   ar
     3    17    18   ar
     4    18    19   ar
     5    19    20   ar
     6    20     7    1
     7     7     8    2
     8     7     9   am
     9     9    10    1
    10    10    11    1
    11    11    12    1
    12    12     1    1
    13     1     2   ar
    14     2     3   ar
    15     3     4   ar
    16     4    21    1
    17    21    22    2
    18    21    23   am
    19    23    25    1
    20    25    26    2
    21    25    27    1
    22     4     5   ar
    23     5     6   ar
    24     6    31    1
    25    31    32    1
    26    31    33    1
    27    31    34    1
    28    12    13    1
    29    13    14    1
    30    20    16   ar
    31    14     9    1
    32     6     1   ar
    33    23    24    1
    34    26    28    1
    35    27    29    1
    36    27    30    1
@<TRIPOS>MOLECULE
*****
 34 36 0 0 0
SMALL
GASTEIGER

@<TRIPOS>ATOM
      1 C          61.7780   93.2760    0.8859 C.ar    1  UNL1       -0.0185
      2 C          62.5548   92.7085    2.0367 C.ar    1  UNL1       -0.0041
      3 C          61.8340   92.1977    3.2490 C.ar    1  UNL1        0.0057
      4 C          60.3363   92.2544    3.3104 C.ar    1  UNL1        0.0696
      5 C          59.5595   92.8220    2.1595 C.ar    1  UNL1        0.0095
      6 C          60.2803   93.3328    0.9473 C.ar    1  UNL1        0.0677
      7 C          64.6612   95.3194   -3.9630 C.2     1  UNL1        0.2665
      8 O          65.7981   96.2855   -3.8078 O.2     1  UNL1       -0.2683
      9 N          63.9404   94.8085   -2.7507 N.am    1  UNL1       -0.2748
     10 C          64.3565   95.2639   -1.3834 C.3     1  UNL1        0.0941
     11 C          63.6357   94.7530   -0.1712 C.3     1  UNL1        0.0259
     12 C          62.4988   93.7869   -0.3263 C.3     1  UNL1        0.0257
     13 C          62.0827   93.3316   -1.6936 C.3     1  UNL1        0.0259
     14 C          62.8035   93.8424   -2.9058 C.3     1  UNL1        0.0941
     15 C          65.2793   92.3996   -5.2831 C.3     1  UNL1        0.1322
     16 N          64.5293   93.5220   -5.9371 N.ar    1  UNL1       -0.3034
     17 C          63.9316   93.4993   -7.3127 C.ar    1  UNL1        0.1787
     18 N          63.2782   94.8275   -7.5560 N.ar    1  UNL1       -0.2222
     19 C          63.4720   95.6709   -6.3308 C.ar    1  UNL1        0.1224
     20 C          64.2452   94.8641   -5.3303 C.ar    1  UNL1        0.1347
     21 C          59.6155   91.7436    4.5226 C.2     1  UNL1        0.3078
     22 O          58.4277   92.4872    5.0577 O.2     1  UNL1       -0.2516
     23 N          60.0824   90.4892    5.1996 N.am    1  UNL1       -0.1708
     24 H          60.8619   90.0012    4.8484 H       1  UNL1        0.2545
     25 C          59.3615   89.9784    6.4119 C.2     1  UNL1        0.3751
     26 N          60.1201   89.7098    7.6778 N.pl3   1  UNL1       -0.1313
     27 N          57.8822   89.7361    6.3582 N.pl3   1  UNL1       -0.2906
     28 H          61.0910   89.8689    7.7130 H       1  UNL1        0.3060
     29 H          57.3844   89.9123    5.5274 H       1  UNL1        0.2545
     30 H          57.4091   89.4008    7.1538 H       1  UNL1        0.2545
     31 C          59.5035   93.9004   -0.2035 C.3     1  UNL1        0.4183
     32 F          58.7267   94.4680   -1.3543 F       1  UNL1       -0.1659
     33 F          59.7300   95.2851    0.3265 F       1  UNL1       -0.1659
     34 F          59.2769   92.5156   -0.7336 F       1  UNL1       -0.1659
@<TRIPOS>BOND
     1    15    16    1
     2    16    17   ar
     3    17    18   ar
     4    18    19   ar
     5    19    20   ar
     6    20     7    1
     7     7     8    2
     8     7     9   am
     9     9    10    1
    10    10    11    1
    11    11    12    1
    12    12     1    1
    13     1     2   ar
    14     2     3   ar
    15     3     4   ar
    16     4    21    1
    17    21    22    2
    18    21    23   am
    19    23    25    1
    20    25    26    2
    21    25    27    1
    22     4     5   ar
    23     5     6   ar
    24     6    31    1
    25    31    32    1
    26    31    33    1
    27    31    34    1
    28    12    13    1
    29    13    14    1
    30    20    16   ar
    31    14     9    1
    32     6     1   ar
    33    23    24    1
    34    26    28    1
    35    27    29    1
    36    27    30    1
