@<TRIPOS>MOLECULE
*****
 34 37 0 0 0
SMALL
GASTEIGER

@<TRIPOS>ATOM
      1 C          64.3695   89.1275   13.5555 C.ar    1  UNL1        0.2046
      2 N          65.3741   89.8359   14.4151 N.ar    1  UNL1       -0.1998
      3 C          65.7810   91.2425   14.0892 C.ar    1  UNL1        0.1389
      4 N          66.7857   91.9508   14.9488 N.pl3   1  UNL1       -0.3420
      5 C          65.1832   91.9406   12.9038 C.ar    1  UNL1        0.1169
      6 C          64.1785   91.2322   12.0443 C.ar    1  UNL1        0.2716
      7 O          63.5807   91.9303   10.8588 O.2     1  UNL1       -0.2663
      8 N          63.7717   89.8257   12.3701 N.ar    1  UNL1       -0.2662
      9 C          62.7670   89.1172   11.5105 C.3     1  UNL1        0.1363
     10 H          67.1780   91.4926   15.7268 H       1  UNL1        0.1437
     11 H          67.0527   92.8740   14.7349 H       1  UNL1        0.1437
     12 C          61.8825   81.3302   13.7203 C.3     1  UNL1        0.0335
     13 C          62.3798   82.6169   14.3093 C.3     1  UNL1        0.1294
     14 O          62.6659   82.8702   15.7599 O.3     1  UNL1       -0.3548
     15 C          63.1413   84.2862   15.8982 C.3     1  UNL1        0.1434
     16 C          63.1490   84.9080   14.5331 C.3     1  UNL1        0.0460
     17 C          63.6001   85.8306   15.6264 C.3     1  UNL1        0.0254
     18 C          64.0070   87.2371   15.3005 C.3     1  UNL1        0.0937
     19 N          63.9626   87.7210   13.8814 N.pl3   1  UNL1       -0.2794
     20 C          63.5115   86.7984   12.7881 C.3     1  UNL1        0.0937
     21 C          63.1046   85.3919   13.1140 C.3     1  UNL1        0.0254
     22 C          62.6783   83.8763   13.5512 C.3     1  UNL1        0.0807
     23 N          62.5320   84.0701   12.0710 N.3     1  UNL1       -0.3202
     24 H          62.8036   85.0218   11.8242 H       1  UNL1        0.1189
     25 H          61.5608   83.9130   11.8019 H       1  UNL1        0.1189
     26 S          65.5900   93.3471   12.5780 S.3     1  UNL1       -0.0786
     27 C          66.4312   93.6230   11.3671 C.ar    1  UNL1        0.0411
     28 C          67.1780   92.5050   10.7020 C.ar    1  UNL1        0.0074
     29 C          68.0192   92.7810    9.4910 C.ar    1  UNL1        0.0014
     30 C          68.1135   94.1750    8.9453 C.ar    1  UNL1        0.0123
     31 C          67.3667   95.2930    9.6103 C.ar    1  UNL1        0.0687
     32 CL         67.4610   96.6870    9.0645 Cl      1  UNL1       -0.0813
     33 C          66.5255   95.0171   10.8212 C.ar    1  UNL1        0.0741
     34 CL         65.7787   96.1351   11.4863 Cl      1  UNL1       -0.0808
@<TRIPOS>BOND
     1    13    12    1
     2    13    14    1
     3    14    15    1
     4    15    16    1
     5    16    17    1
     6    17    18    1
     7    18    19    1
     8    19     1    1
     9     1     2   ar
    10     2     3   ar
    11     3     4    1
    12     3     5   ar
    13     5    26    1
    14    26    27    1
    15    27    28   ar
    16    28    29   ar
    17    29    30   ar
    18    30    31   ar
    19    31    32    1
    20    31    33   ar
    21    33    34    1
    22     5     6   ar
    23     6     7    2
    24     6     8   ar
    25     8     9    1
    26    19    20    1
    27    20    21    1
    28    16    22    1
    29    22    23    1
    30    22    13    1
    31    21    16    1
    32     8     1   ar
    33    33    27   ar
    34     4    10    1
    35     4    11    1
    36    23    24    1
    37    23    25    1
@<TRIPOS>MOLECULE
*****
 34 37 0 0 0
SMALL
GASTEIGER

@<TRIPOS>ATOM
      1 C          63.1501   86.4211   12.8272 C.ar    1  UNL1        0.2046
      2 N          62.5481   87.3031   11.7737 N.ar    1  UNL1       -0.1998
      3 C          62.7052   88.7922   11.8627 C.ar    1  UNL1        0.1389
      4 N          62.1033   89.6742   10.8093 N.pl3   1  UNL1       -0.3420
      5 C          63.4643   89.3993   13.0052 C.ar    1  UNL1        0.1169
      6 C          64.0663   88.5173   14.0587 C.ar    1  UNL1        0.2716
      7 O          64.8253   89.1244   15.2012 O.2     1  UNL1       -0.2663
      8 N          63.9091   87.0282   13.9696 N.ar    1  UNL1       -0.2662
      9 C          64.5111   86.1462   15.0231 C.3     1  UNL1        0.1363
     10 H          61.6051   89.2757   10.0595 H       1  UNL1        0.1437
     11 H          62.2064   90.6515   10.8677 H       1  UNL1        0.1437
     12 C          62.8248   78.4958   10.8035 C.3     1  UNL1        0.0335
     13 C          62.6737   79.6799   11.7118 C.3     1  UNL1        0.1294
     14 O          62.2003   79.6447   13.1348 O.3     1  UNL1       -0.3548
     15 C          62.2035   81.0502   13.6591 C.3     1  UNL1        0.1434
     16 C          62.6788   81.9539   12.5602 C.3     1  UNL1        0.0460
     17 C          62.3474   82.6680   13.8370 C.3     1  UNL1        0.0254
     18 C          62.5045   84.1570   13.9260 C.3     1  UNL1        0.0937
     19 N          62.9930   84.9320   12.7382 N.pl3   1  UNL1       -0.2794
     20 C          63.3243   84.2178   11.4614 C.3     1  UNL1        0.0937
     21 C          63.1672   82.7288   11.3724 C.3     1  UNL1        0.0254
     22 C          62.9694   81.1069   11.3567 C.3     1  UNL1        0.0807
     23 N          63.4681   81.6005   10.0310 N.3     1  UNL1       -0.3202
     24 H          63.5831   82.6133   10.0667 H       1  UNL1        0.1189
     25 H          62.7947   81.3602    9.3035 H       1  UNL1        0.1189
     26 S          63.6214   90.8884   13.0943 S.3     1  UNL1       -0.0786
     27 C          64.9437   91.5231   12.7803 C.ar    1  UNL1        0.0411
     28 C          66.0307   91.5423   13.8138 C.ar    1  UNL1        0.0074
     29 C          67.3530   92.1771   13.4997 C.ar    1  UNL1        0.0014
     30 C          67.5884   92.7925   12.1522 C.ar    1  UNL1        0.0123
     31 C          66.5014   92.7733   11.1187 C.ar    1  UNL1        0.0687
     32 CL         66.7367   93.3888    9.7713 Cl      1  UNL1       -0.0813
     33 C          65.1791   92.1386   11.4327 C.ar    1  UNL1        0.0741
     34 CL         64.0921   92.1194   10.3992 Cl      1  UNL1       -0.0808
@<TRIPOS>BOND
     1    13    12    1
     2    13    14    1
     3    14    15    1
     4    15    16    1
     5    16    17    1
     6    17    18    1
     7    18    19    1
     8    19     1    1
     9     1     2   ar
    10     2     3   ar
    11     3     4    1
    12     3     5   ar
    13     5    26    1
    14    26    27    1
    15    27    28   ar
    16    28    29   ar
    17    29    30   ar
    18    30    31   ar
    19    31    32    1
    20    31    33   ar
    21    33    34    1
    22     5     6   ar
    23     6     7    2
    24     6     8   ar
    25     8     9    1
    26    19    20    1
    27    20    21    1
    28    16    22    1
    29    22    23    1
    30    22    13    1
    31    21    16    1
    32     8     1   ar
    33    33    27   ar
    34     4    10    1
    35     4    11    1
    36    23    24    1
    37    23    25    1
@<TRIPOS>MOLECULE
*****
 34 37 0 0 0
SMALL
GASTEIGER

@<TRIPOS>ATOM
      1 C          63.1184   86.4374   12.7550 C.ar    1  UNL1        0.2046
      2 N          63.7761   87.0668   13.9472 N.ar    1  UNL1       -0.1998
      3 C          63.9221   88.5578   14.0232 C.ar    1  UNL1        0.1389
      4 N          64.5798   89.1871   15.2154 N.pl3   1  UNL1       -0.3420
      5 C          63.4104   89.4193   12.9070 C.ar    1  UNL1        0.1169
      6 C          62.7527   88.7899   11.7148 C.ar    1  UNL1        0.2716
      7 O          62.2411   89.6515   10.5986 O.2     1  UNL1       -0.2663
      8 N          62.6067   87.2990   11.6388 N.ar    1  UNL1       -0.2662
      9 C          61.9491   86.6696   10.4465 C.3     1  UNL1        0.1363
     10 H          64.9156   88.6216   15.9480 H       1  UNL1        0.1437
     11 H          64.6756   90.1657   15.2653 H       1  UNL1        0.1437
     12 C          62.8486   78.4930   10.7992 C.3     1  UNL1        0.0335
     13 C          62.6906   79.6835   11.6978 C.3     1  UNL1        0.1294
     14 O          62.2207   79.6569   13.1221 O.3     1  UNL1       -0.3548
     15 C          62.2144   81.0667   13.6346 C.3     1  UNL1        0.1434
     16 C          62.6803   81.9646   12.5270 C.3     1  UNL1        0.0460
     17 C          62.3465   82.6870   13.7984 C.3     1  UNL1        0.0254
     18 C          62.4925   84.1779   13.8744 C.3     1  UNL1        0.0937
     19 N          62.9724   84.9464   12.6789 N.pl3   1  UNL1       -0.2794
     20 C          63.3063   84.2240   11.4075 C.3     1  UNL1        0.0937
     21 C          63.1602   82.7331   11.3315 C.3     1  UNL1        0.0254
     22 C          62.9746   81.1097   11.3300 C.3     1  UNL1        0.0807
     23 N          63.4666   81.5958    9.9990 N.3     1  UNL1       -0.3202
     24 H          63.5740   82.6097   10.0258 H       1  UNL1        0.1189
     25 H          62.7934   81.3442    9.2751 H       1  UNL1        0.1189
     26 S          63.5564   90.9102   12.9830 S.3     1  UNL1       -0.0786
     27 C          64.8832   91.5493   12.6983 C.ar    1  UNL1        0.0411
     28 C          65.9483   91.5689   13.7544 C.ar    1  UNL1        0.0074
     29 C          67.2751   92.2080   13.4697 C.ar    1  UNL1        0.0014
     30 C          67.5369   92.8276   12.1290 C.ar    1  UNL1        0.0123
     31 C          66.4719   92.8080   11.0729 C.ar    1  UNL1        0.0687
     32 CL         66.7337   93.4275    9.7321 Cl      1  UNL1       -0.0813
     33 C          65.1451   92.1689   11.3575 C.ar    1  UNL1        0.0741
     34 CL         64.0800   92.1493   10.3014 Cl      1  UNL1       -0.0808
@<TRIPOS>BOND
     1    13    12    1
     2    13    14    1
     3    14    15    1
     4    15    16    1
     5    16    17    1
     6    17    18    1
     7    18    19    1
     8    19     1    1
     9     1     2   ar
    10     2     3   ar
    11     3     4    1
    12     3     5   ar
    13     5    26    1
    14    26    27    1
    15    27    28   ar
    16    28    29   ar
    17    29    30   ar
    18    30    31   ar
    19    31    32    1
    20    31    33   ar
    21    33    34    1
    22     5     6   ar
    23     6     7    2
    24     6     8   ar
    25     8     9    1
    26    19    20    1
    27    20    21    1
    28    16    22    1
    29    22    23    1
    30    22    13    1
    31    21    16    1
    32     8     1   ar
    33    33    27   ar
    34     4    10    1
    35     4    11    1
    36    23    24    1
    37    23    25    1
@<TRIPOS>MOLECULE
*****
 34 37 0 0 0
SMALL
GASTEIGER

@<TRIPOS>ATOM
      1 C          63.1189   86.5895   12.6062 C.ar    1  UNL1        0.2046
      2 N          62.4572   87.4600   11.5795 N.ar    1  UNL1       -0.1998
      3 C          62.5491   88.9531   11.6904 C.ar    1  UNL1        0.1389
      4 N          61.8874   89.8236   10.6636 N.pl3   1  UNL1       -0.3420
      5 C          63.3028   89.5757   12.8281 C.ar    1  UNL1        0.1169
      6 C          63.9646   88.7051   13.8549 C.ar    1  UNL1        0.2716
      7 O          64.7183   89.3276   14.9926 O.2     1  UNL1       -0.2663
      8 N          63.8726   87.2121   13.7439 N.ar    1  UNL1       -0.2662
      9 C          64.5344   86.3415   14.7707 C.3     1  UNL1        0.1363
     10 H          61.3927   89.4150    9.9169 H       1  UNL1        0.1437
     11 H          61.9477   90.8036   10.7364 H       1  UNL1        0.1437
     12 C          62.1682   78.5170   13.5764 C.3     1  UNL1        0.0335
     13 C          62.4906   79.7723   12.8214 C.3     1  UNL1        0.1294
     14 O          62.9125   79.8530   11.3842 O.3     1  UNL1       -0.3548
     15 C          63.1304   81.2981   11.0456 C.3     1  UNL1        0.1434
     16 C          62.8431   82.1103   12.2735 C.3     1  UNL1        0.0460
     17 C          63.2544   82.9268   11.0843 C.3     1  UNL1        0.0254
     18 C          63.3464   84.4198   11.1953 C.3     1  UNL1        0.0937
     19 N          63.0269   85.0964   12.4953 N.pl3   1  UNL1       -0.2794
     20 C          62.6155   84.2799   13.6845 C.3     1  UNL1        0.0937
     21 C          62.5236   82.7869   13.5735 C.3     1  UNL1        0.0254
     22 C          62.4476   81.1673   13.3710 C.3     1  UNL1        0.0807
     23 N          62.0748   81.5519   14.7720 N.3     1  UNL1       -0.3202
     24 H          62.1299   82.5654   14.8725 H       1  UNL1        0.1189
     25 H          62.7180   81.1097   15.4286 H       1  UNL1        0.1189
     26 S          63.3948   91.0687   12.9390 S.3     1  UNL1       -0.0786
     27 C          64.6576   91.7739   12.5414 C.ar    1  UNL1        0.0411
     28 C          64.9383   92.0504   11.0941 C.ar    1  UNL1        0.0074
     29 C          66.2012   92.7557   10.6965 C.ar    1  UNL1        0.0014
     30 C          67.1832   93.1843   11.7463 C.ar    1  UNL1        0.0123
     31 C          66.9024   92.9077   13.1936 C.ar    1  UNL1        0.0687
     32 CL         67.8844   93.3363   14.2433 Cl      1  UNL1       -0.0813
     33 C          65.6396   92.2025   13.5911 C.ar    1  UNL1        0.0741
     34 CL         65.3589   91.9259   15.0384 Cl      1  UNL1       -0.0808
@<TRIPOS>BOND
     1    13    12    1
     2    13    14    1
     3    14    15    1
     4    15    16    1
     5    16    17    1
     6    17    18    1
     7    18    19    1
     8    19     1    1
     9     1     2   ar
    10     2     3   ar
    11     3     4    1
    12     3     5   ar
    13     5    26    1
    14    26    27    1
    15    27    28   ar
    16    28    29   ar
    17    29    30   ar
    18    30    31   ar
    19    31    32    1
    20    31    33   ar
    21    33    34    1
    22     5     6   ar
    23     6     7    2
    24     6     8   ar
    25     8     9    1
    26    19    20    1
    27    20    21    1
    28    16    22    1
    29    22    23    1
    30    22    13    1
    31    21    16    1
    32     8     1   ar
    33    33    27   ar
    34     4    10    1
    35     4    11    1
    36    23    24    1
    37    23    25    1
@<TRIPOS>MOLECULE
*****
 34 37 0 0 0
SMALL
GASTEIGER

@<TRIPOS>ATOM
      1 C          64.0444   88.4819   13.3236 C.ar    1  UNL1        0.2046
      2 N          64.5542   87.5893   14.4160 N.ar    1  UNL1       -0.1998
      3 C          64.0281   86.1908   14.5487 C.ar    1  UNL1        0.1389
      4 N          64.5380   85.2982   15.6410 N.pl3   1  UNL1       -0.3420
      5 C          62.9923   85.6850   13.5889 C.ar    1  UNL1        0.1169
      6 C          62.4824   86.5777   12.4965 C.ar    1  UNL1        0.2716
      7 O          61.4465   86.0719   11.5368 O.2     1  UNL1       -0.2663
      8 N          63.0085   87.9761   12.3639 N.ar    1  UNL1       -0.2662
      9 C          62.4987   88.8688   11.2715 C.3     1  UNL1        0.1363
     10 H          65.2178   85.6302   16.2709 H       1  UNL1        0.1437
     11 H          64.1927   84.3804   15.7281 H       1  UNL1        0.1437
     12 C          66.3311   96.0123   11.0708 C.3     1  UNL1        0.0335
     13 C          66.1900   94.8531   12.0121 C.3     1  UNL1        0.1294
     14 O          66.6741   94.8056   13.4311 O.3     1  UNL1       -0.3548
     15 C          66.3234   93.4609   13.9957 C.3     1  UNL1        0.1434
     16 C          65.6225   92.6773   12.9257 C.3     1  UNL1        0.0460
     17 C          65.7787   91.9370   14.2209 C.3     1  UNL1        0.0254
     18 C          65.2527   90.5385   14.3535 C.3     1  UNL1        0.0937
     19 N          64.5704   89.8804   13.1910 N.pl3   1  UNL1       -0.2794
     20 C          64.4142   90.6208   11.8958 C.3     1  UNL1        0.0937
     21 C          64.9403   92.0192   11.7632 C.3     1  UNL1        0.0254
     22 C          65.5401   93.5378   11.6998 C.3     1  UNL1        0.0807
     23 N          64.9172   93.1508   10.3913 N.3     1  UNL1       -0.3202
     24 H          64.5512   92.2010   10.4567 H       1  UNL1        0.1189
     25 H          65.6206   93.1940    9.6539 H       1  UNL1        0.1189
     26 S          62.4662   84.2866   13.7216 S.3     1  UNL1       -0.0786
     27 C          62.8269   83.2496   12.6996 C.ar    1  UNL1        0.0411
     28 C          63.5348   83.6523   11.4400 C.ar    1  UNL1        0.0074
     29 C          63.8955   82.6152   10.4180 C.ar    1  UNL1        0.0014
     30 C          63.5484   81.1754   10.6557 C.ar    1  UNL1        0.0123
     31 C          62.8405   80.7727   11.9154 C.ar    1  UNL1        0.0687
     32 CL         62.4933   79.3329   12.1531 Cl      1  UNL1       -0.0813
     33 C          62.4798   81.8097   12.9373 C.ar    1  UNL1        0.0741
     34 CL         61.7719   81.4070   14.1970 Cl      1  UNL1       -0.0808
@<TRIPOS>BOND
     1    13    12    1
     2    13    14    1
     3    14    15    1
     4    15    16    1
     5    16    17    1
     6    17    18    1
     7    18    19    1
     8    19     1    1
     9     1     2   ar
    10     2     3   ar
    11     3     4    1
    12     3     5   ar
    13     5    26    1
    14    26    27    1
    15    27    28   ar
    16    28    29   ar
    17    29    30   ar
    18    30    31   ar
    19    31    32    1
    20    31    33   ar
    21    33    34    1
    22     5     6   ar
    23     6     7    2
    24     6     8   ar
    25     8     9    1
    26    19    20    1
    27    20    21    1
    28    16    22    1
    29    22    23    1
    30    22    13    1
    31    21    16    1
    32     8     1   ar
    33    33    27   ar
    34     4    10    1
    35     4    11    1
    36    23    24    1
    37    23    25    1
@<TRIPOS>MOLECULE
*****
 34 37 0 0 0
SMALL
GASTEIGER

@<TRIPOS>ATOM
      1 C          63.3817   89.5295   12.3708 C.ar    1  UNL1        0.2046
      2 N          63.1345   88.0922   12.7211 N.ar    1  UNL1       -0.1998
      3 C          62.2696   87.2428   11.8375 C.ar    1  UNL1        0.1389
      4 N          62.0224   85.8054   12.1878 N.pl3   1  UNL1       -0.3420
      5 C          61.6520   87.8309   10.6035 C.ar    1  UNL1        0.1169
      6 C          61.8993   89.2684   10.2532 C.ar    1  UNL1        0.2716
      7 O          61.2816   89.8565    9.0192 O.2     1  UNL1       -0.2663
      8 N          62.7641   90.1176   11.1368 N.ar    1  UNL1       -0.2662
      9 C          63.0113   91.5551   10.7864 C.3     1  UNL1        0.1363
     10 H          62.4278   85.4194   12.9977 H       1  UNL1        0.1437
     11 H          61.4548   85.2480   11.6079 H       1  UNL1        0.1437
     12 C          69.0610   94.2756   15.8680 C.3     1  UNL1        0.0335
     13 C          67.7916   93.4783   15.8168 C.3     1  UNL1        0.1294
     14 O          66.8221   93.2907   16.9460 O.3     1  UNL1       -0.3548
     15 C          65.7000   92.4249   16.4545 C.3     1  UNL1        0.1434
     16 C          65.9760   92.0775   15.0216 C.3     1  UNL1        0.0460
     17 C          64.7041   91.4904   15.5577 C.3     1  UNL1        0.0254
     18 C          63.8393   90.6411   14.6740 C.3     1  UNL1        0.0937
     19 N          64.2465   90.3789   13.2544 N.pl3   1  UNL1       -0.2794
     20 C          65.5185   90.9660   12.7183 C.3     1  UNL1        0.0937
     21 C          66.3832   91.8153   13.6020 C.3     1  UNL1        0.0254
     22 C          67.2687   92.7285   14.6275 C.3     1  UNL1        0.0807
     23 N          67.9235   92.6444   13.2806 N.3     1  UNL1       -0.3202
     24 H          67.3525   92.0704   12.6603 H       1  UNL1        0.1189
     25 H          68.8479   92.2244   13.3776 H       1  UNL1        0.1189
     26 S          60.7872   86.9817    9.7199 S.3     1  UNL1       -0.0786
     27 C          61.4153   86.0770    8.7016 C.ar    1  UNL1        0.0411
     28 C          62.8301   85.6124    8.8822 C.ar    1  UNL1        0.0074
     29 C          63.4582   84.7077    7.8638 C.ar    1  UNL1        0.0014
     30 C          62.6715   84.2676    6.6649 C.ar    1  UNL1        0.0123
     31 C          61.2568   84.7322    6.4843 C.ar    1  UNL1        0.0687
     32 CL         60.4701   84.2921    5.2854 Cl      1  UNL1       -0.0813
     33 C          60.6287   85.6368    7.5026 C.ar    1  UNL1        0.0741
     34 CL         59.2139   86.1014    7.3220 Cl      1  UNL1       -0.0808
@<TRIPOS>BOND
     1    13    12    1
     2    13    14    1
     3    14    15    1
     4    15    16    1
     5    16    17    1
     6    17    18    1
     7    18    19    1
     8    19     1    1
     9     1     2   ar
    10     2     3   ar
    11     3     4    1
    12     3     5   ar
    13     5    26    1
    14    26    27    1
    15    27    28   ar
    16    28    29   ar
    17    29    30   ar
    18    30    31   ar
    19    31    32    1
    20    31    33   ar
    21    33    34    1
    22     5     6   ar
    23     6     7    2
    24     6     8   ar
    25     8     9    1
    26    19    20    1
    27    20    21    1
    28    16    22    1
    29    22    23    1
    30    22    13    1
    31    21    16    1
    32     8     1   ar
    33    33    27   ar
    34     4    10    1
    35     4    11    1
    36    23    24    1
    37    23    25    1
@<TRIPOS>MOLECULE
*****
 34 37 0 0 0
SMALL
GASTEIGER

@<TRIPOS>ATOM
      1 C          56.7286   95.0863   -1.7343 C.ar    1  UNL1        0.2046
      2 N          57.3836   96.1420   -0.8939 N.ar    1  UNL1       -0.1998
      3 C          58.5815   95.7994   -0.0585 C.ar    1  UNL1        0.1389
      4 N          59.2364   96.8552    0.7820 N.pl3   1  UNL1       -0.3420
      5 C          59.1242   94.4011   -0.0635 C.ar    1  UNL1        0.1169
      6 C          58.4692   93.3453   -0.9040 C.ar    1  UNL1        0.2716
      7 O          59.0120   91.9470   -0.9090 O.2     1  UNL1       -0.2663
      8 N          57.2714   93.6879   -1.7394 N.ar    1  UNL1       -0.2662
      9 C          56.6164   92.6322   -2.5799 C.3     1  UNL1        0.1363
     10 H          58.8802   97.7730    0.7853 H       1  UNL1        0.1437
     11 H          60.0226   96.6304    1.3303 H       1  UNL1        0.1437
     12 C          49.3516   96.6519   -4.9185 C.3     1  UNL1        0.0335
     13 C          50.8455   96.5187   -4.9363 C.3     1  UNL1        0.1294
     14 O          51.7385   96.7635   -6.1163 O.3     1  UNL1       -0.3548
     15 C          53.1538   96.5134   -5.6864 C.3     1  UNL1        0.1434
     16 C          53.1353   96.1139   -4.2407 C.3     1  UNL1        0.0460
     17 C          54.5076   96.1547   -4.8449 C.3     1  UNL1        0.0254
     18 C          55.7053   95.8122   -4.0094 C.3     1  UNL1        0.0937
     19 N          55.5308   95.4288   -2.5698 N.pl3   1  UNL1       -0.2794
     20 C          54.1585   95.3881   -1.9656 C.3     1  UNL1        0.0937
     21 C          52.9607   95.7306   -2.8010 C.3     1  UNL1        0.0254
     22 C          51.7086   96.1172   -3.7771 C.3     1  UNL1        0.0807
     23 N          51.2295   95.7785   -2.3966 N.3     1  UNL1       -0.3202
     24 H          52.0281   95.5414   -1.8082 H       1  UNL1        0.1189
     25 H          50.5933   94.9826   -2.4433 H       1  UNL1        0.1189
     26 S          60.3220   94.0585    0.7719 S.3     1  UNL1       -0.0786
     27 C          61.7026   94.2507    0.2178 C.ar    1  UNL1        0.0411
     28 C          61.9115   95.1093   -0.9943 C.ar    1  UNL1        0.0074
     29 C          63.2922   95.3014   -1.5484 C.ar    1  UNL1        0.0014
     30 C          64.4638   94.6349   -0.8904 C.ar    1  UNL1        0.0123
     31 C          64.2549   93.7764    0.3217 C.ar    1  UNL1        0.0687
     32 CL         65.4266   93.1099    0.9797 Cl      1  UNL1       -0.0813
     33 C          62.8743   93.5842    0.8758 C.ar    1  UNL1        0.0741
     34 CL         62.6654   92.7256    2.0879 Cl      1  UNL1       -0.0808
@<TRIPOS>BOND
     1    13    12    1
     2    13    14    1
     3    14    15    1
     4    15    16    1
     5    16    17    1
     6    17    18    1
     7    18    19    1
     8    19     1    1
     9     1     2   ar
    10     2     3   ar
    11     3     4    1
    12     3     5   ar
    13     5    26    1
    14    26    27    1
    15    27    28   ar
    16    28    29   ar
    17    29    30   ar
    18    30    31   ar
    19    31    32    1
    20    31    33   ar
    21    33    34    1
    22     5     6   ar
    23     6     7    2
    24     6     8   ar
    25     8     9    1
    26    19    20    1
    27    20    21    1
    28    16    22    1
    29    22    23    1
    30    22    13    1
    31    21    16    1
    32     8     1   ar
    33    33    27   ar
    34     4    10    1
    35     4    11    1
    36    23    24    1
    37    23    25    1
@<TRIPOS>MOLECULE
*****
 34 37 0 0 0
SMALL
GASTEIGER

@<TRIPOS>ATOM
      1 C          58.2033   94.8730   -2.3201 C.ar    1  UNL1        0.2046
      2 N          59.2771   95.6753   -2.9933 N.ar    1  UNL1       -0.1998
      3 C          60.7176   95.2937   -2.8216 C.ar    1  UNL1        0.1389
      4 N          61.7914   96.0960   -3.4947 N.pl3   1  UNL1       -0.3420
      5 C          61.0842   94.1097   -1.9767 C.ar    1  UNL1        0.1169
      6 C          60.0103   93.3074   -1.3035 C.ar    1  UNL1        0.2716
      7 O          60.3769   92.1235   -0.4586 O.2     1  UNL1       -0.2663
      8 N          58.5699   93.6891   -1.4752 N.ar    1  UNL1       -0.2662
      9 C          57.4960   92.8868   -0.8020 C.3     1  UNL1        0.1363
     10 H          61.5508   96.8731   -4.0493 H       1  UNL1        0.1437
     11 H          62.7368   95.8455   -3.3821 H       1  UNL1        0.1437
     12 C          50.6117   96.6158   -4.8383 C.3     1  UNL1        0.0335
     13 C          51.7166   96.4682   -3.8348 C.3     1  UNL1        0.1294
     14 O          51.6139   96.7423   -2.3636 O.3     1  UNL1       -0.3548
     15 C          52.9522   96.4640   -1.7457 C.3     1  UNL1        0.1434
     16 C          53.8820   96.0179   -2.8350 C.3     1  UNL1        0.0460
     17 C          54.5132   96.0645   -1.4751 C.3     1  UNL1        0.0254
     18 C          55.9536   95.6828   -1.3035 C.3     1  UNL1        0.0937
     19 N          56.7628   95.2547   -2.4918 N.pl3   1  UNL1       -0.2794
     20 C          56.1315   95.2081   -3.8516 C.3     1  UNL1        0.0937
     21 C          54.6911   95.5898   -4.0233 C.3     1  UNL1        0.0254
     22 C          53.1183   96.0205   -4.1261 C.3     1  UNL1        0.0807
     23 N          53.6611   95.6420   -5.4722 N.3     1  UNL1       -0.3202
     24 H          54.6421   95.3778   -5.3812 H       1  UNL1        0.1189
     25 H          53.5805   96.4363   -6.1070 H       1  UNL1        0.1189
     26 S          62.5246   93.7281   -1.8050 S.3     1  UNL1       -0.0786
     27 C          63.3591   94.4018   -0.7563 C.ar    1  UNL1        0.0411
     28 C          63.0503   94.1928    0.6966 C.ar    1  UNL1        0.0074
     29 C          63.8848   94.8665    1.7452 C.ar    1  UNL1        0.0014
     30 C          65.0281   95.7493    1.3410 C.ar    1  UNL1        0.0123
     31 C          65.3369   95.9584   -0.1119 C.ar    1  UNL1        0.0687
     32 CL         66.4802   96.8412   -0.5162 Cl      1  UNL1       -0.0813
     33 C          64.5025   95.2847   -1.1606 C.ar    1  UNL1        0.0741
     34 CL         64.8113   95.4937   -2.6135 Cl      1  UNL1       -0.0808
@<TRIPOS>BOND
     1    13    12    1
     2    13    14    1
     3    14    15    1
     4    15    16    1
     5    16    17    1
     6    17    18    1
     7    18    19    1
     8    19     1    1
     9     1     2   ar
    10     2     3   ar
    11     3     4    1
    12     3     5   ar
    13     5    26    1
    14    26    27    1
    15    27    28   ar
    16    28    29   ar
    17    29    30   ar
    18    30    31   ar
    19    31    32    1
    20    31    33   ar
    21    33    34    1
    22     5     6   ar
    23     6     7    2
    24     6     8   ar
    25     8     9    1
    26    19    20    1
    27    20    21    1
    28    16    22    1
    29    22    23    1
    30    22    13    1
    31    21    16    1
    32     8     1   ar
    33    33    27   ar
    34     4    10    1
    35     4    11    1
    36    23    24    1
    37    23    25    1
@<TRIPOS>MOLECULE
*****
 34 37 0 0 0
SMALL
GASTEIGER

@<TRIPOS>ATOM
      1 C          62.9025   88.7735   11.6486 C.ar    1  UNL1        0.2046
      2 N          63.2387   88.1162   12.9543 N.ar    1  UNL1       -0.1998
      3 C          63.8931   88.9091   14.0466 C.ar    1  UNL1        0.1389
      4 N          64.2294   88.2518   15.3523 N.pl3   1  UNL1       -0.3420
      5 C          64.2112   90.3594   13.8331 C.ar    1  UNL1        0.1169
      6 C          63.8749   91.0167   12.5274 C.ar    1  UNL1        0.2716
      7 O          64.1930   92.4670   12.3139 O.2     1  UNL1       -0.2663
      8 N          63.2205   90.2237   11.4352 N.ar    1  UNL1       -0.2662
      9 C          62.8842   90.8810   10.1294 C.3     1  UNL1        0.1363
     10 H          64.0207   87.3000   15.4924 H       1  UNL1        0.1437
     11 H          64.6589   88.7723   16.0691 H       1  UNL1        0.1437
     12 C          60.8058   83.7443    5.5394 C.3     1  UNL1        0.0335
     13 C          60.5771   84.8119    6.5678 C.3     1  UNL1        0.1294
     14 O          59.2872   85.5370    6.8142 O.3     1  UNL1       -0.3548
     15 C          59.5111   86.5152    7.9292 C.3     1  UNL1        0.1434
     16 C          60.9392   86.3947    8.3719 C.3     1  UNL1        0.0460
     17 C          60.1494   87.4190    9.1314 C.3     1  UNL1        0.0254
     18 C          60.8038   88.2119   10.2236 C.3     1  UNL1        0.0937
     19 N          62.2480   87.9805   10.5563 N.pl3   1  UNL1       -0.2794
     20 C          63.0378   86.9562    9.7968 C.3     1  UNL1        0.0937
     21 C          62.3834   86.1633    8.7046 C.3     1  UNL1        0.0254
     22 C          61.5980   85.3420    7.5304 C.3     1  UNL1        0.0807
     23 N          63.0269   84.8975    7.6336 N.3     1  UNL1       -0.3202
     24 H          63.4942   85.4239    8.3718 H       1  UNL1        0.1189
     25 H          63.4999   85.0644    6.7455 H       1  UNL1        0.1189
     26 S          64.8656   91.1524   14.9253 S.3     1  UNL1       -0.0786
     27 C          66.2619   91.6693   14.7434 C.ar    1  UNL1        0.0411
     28 C          67.0630   91.2593   13.5434 C.ar    1  UNL1        0.0074
     29 C          68.4594   91.7763   13.3615 C.ar    1  UNL1        0.0014
     30 C          69.0546   92.7031   14.3797 C.ar    1  UNL1        0.0123
     31 C          68.2534   93.1131   15.5797 C.ar    1  UNL1        0.0687
     32 CL         68.8486   94.0399   16.5979 Cl      1  UNL1       -0.0813
     33 C          66.8571   92.5962   15.7616 C.ar    1  UNL1        0.0741
     34 CL         66.0560   93.0061   16.9617 Cl      1  UNL1       -0.0808
@<TRIPOS>BOND
     1    13    12    1
     2    13    14    1
     3    14    15    1
     4    15    16    1
     5    16    17    1
     6    17    18    1
     7    18    19    1
     8    19     1    1
     9     1     2   ar
    10     2     3   ar
    11     3     4    1
    12     3     5   ar
    13     5    26    1
    14    26    27    1
    15    27    28   ar
    16    28    29   ar
    17    29    30   ar
    18    30    31   ar
    19    31    32    1
    20    31    33   ar
    21    33    34    1
    22     5     6   ar
    23     6     7    2
    24     6     8   ar
    25     8     9    1
    26    19    20    1
    27    20    21    1
    28    16    22    1
    29    22    23    1
    30    22    13    1
    31    21    16    1
    32     8     1   ar
    33    33    27   ar
    34     4    10    1
    35     4    11    1
    36    23    24    1
    37    23    25    1
