@<TRIPOS>MOLECULE
*****
 26 28 0 0 0
SMALL
GASTEIGER

@<TRIPOS>ATOM
      1 C          63.0250   86.2598   16.4235 C.2     1  UNL1        0.2491
      2 O          62.2773   85.9610   17.6891 O.2     1  UNL1       -0.2699
      3 N          63.4281   87.6691   16.1055 N.am    1  UNL1       -0.2754
      4 C          64.1758   87.9679   14.8399 C.3     1  UNL1        0.0981
      5 C          64.5789   89.3774   14.5219 C.3     1  UNL1        0.0442
      6 C          64.2343   90.4879   15.4695 C.2     1  UNL1       -0.0326
      7 C          64.6374   91.8973   15.1515 C.2     1  UNL1        0.0412
      8 C          63.4866   90.1891   16.7350 C.3     1  UNL1        0.0442
      9 C          63.0835   88.7798   17.0531 C.3     1  UNL1        0.0981
     10 C          62.7588   82.8995   14.3289 C.ar    1  UNL1        0.1389
     11 C          64.0587   82.9279   13.5810 C.ar    1  UNL1        0.0369
     12 C          65.0141   84.0670   13.7806 C.ar    1  UNL1        0.0033
     13 C          64.6695   85.1776   14.7281 C.ar    1  UNL1        0.0047
     14 C          63.3696   85.1491   15.4760 C.ar    1  UNL1        0.0566
     15 C          62.4143   84.0101   15.2764 C.ar    1  UNL1        0.0414
     16 C          62.2539   80.5200   13.4162 C.3     1  UNL1        0.2525
     17 O          61.8035   81.7604   14.1293 O.3     1  UNL1       -0.4714
     18 C          65.3851   92.1961   13.8859 C.1     1  UNL1       -0.0583
     19 C          66.1328   92.4949   12.6203 C.1     1  UNL1       -0.0405
     20 C          66.8805   92.7937   11.3548 C.ar    1  UNL1        0.1224
     21 C          67.7406   91.7386   10.7248 C.ar    1  UNL1        0.0276
     22 C          68.4883   92.0374    9.4593 C.ar    1  UNL1        0.0034
     23 C          68.3759   93.3913    8.8236 C.ar    1  UNL1        0.0148
     24 C          67.5158   94.4466    9.4536 C.ar    1  UNL1        0.0600
     25 C          67.4035   95.8006    8.8179 C.3     1  UNL1        0.0521
     26 N          66.7681   94.1478   10.7191 N.ar    1  UNL1       -0.2414
@<TRIPOS>BOND
     1    16    17    1
     2    17    10    1
     3    10    11   ar
     4    11    12   ar
     5    12    13   ar
     6    13    14   ar
     7    14     1    1
     8     1     2    2
     9     1     3   am
    10     3     4    1
    11     4     5    1
    12     5     6    1
    13     6     7    2
    14     7    18    1
    15    18    19    3
    16    19    20    1
    17    20    21   ar
    18    21    22   ar
    19    22    23   ar
    20    23    24   ar
    21    24    25    1
    22    24    26   ar
    23     6     8    1
    24     8     9    1
    25    14    15   ar
    26    15    10   ar
    27     9     3    1
    28    26    20   ar
@<TRIPOS>MOLECULE
*****
 26 28 0 0 0
SMALL
GASTEIGER

@<TRIPOS>ATOM
      1 C          66.3336   93.7822   13.1071 C.2     1  UNL1        0.2491
      2 O          66.9686   94.3365   14.3479 O.2     1  UNL1       -0.2699
      3 N          65.5690   92.4931   13.1675 N.am    1  UNL1       -0.2754
      4 C          64.9340   91.9388   11.9268 C.3     1  UNL1        0.0981
      5 C          64.1694   90.6497   11.9873 C.3     1  UNL1        0.0442
      6 C          64.0398   89.9149   13.2885 C.2     1  UNL1       -0.0326
      7 C          63.2753   88.6259   13.3490 C.2     1  UNL1        0.0412
      8 C          64.6748   90.4692   14.5293 C.3     1  UNL1        0.0442
      9 C          65.4394   91.7583   14.4688 C.3     1  UNL1        0.0981
     10 C          67.2456   94.5864    9.3293 C.ar    1  UNL1        0.1389
     11 C          66.7225   95.9865    9.2033 C.ar    1  UNL1        0.0369
     12 C          66.0698   96.6519   10.3786 C.ar    1  UNL1        0.0033
     13 C          65.9401   95.9171   11.6798 C.ar    1  UNL1        0.0047
     14 C          66.4632   94.5170   11.8058 C.ar    1  UNL1        0.0566
     15 C          67.1159   93.8516   10.6305 C.ar    1  UNL1        0.0414
     16 C          68.7000   92.6687    8.3511 C.3     1  UNL1        0.2525
     17 O          67.8983   93.9210    8.1540 O.3     1  UNL1       -0.4714
     18 C          62.6403   88.0716   12.1082 C.1     1  UNL1       -0.0583
     19 C          62.0053   87.5173   10.8674 C.1     1  UNL1       -0.0405
     20 C          61.3703   86.9630    9.6266 C.ar    1  UNL1        0.1224
     21 C          59.9429   87.2918    9.3035 C.ar    1  UNL1        0.0276
     22 C          59.3079   86.7376    8.0627 C.ar    1  UNL1        0.0034
     23 C          60.1003   85.8544    7.1451 C.ar    1  UNL1        0.0148
     24 C          61.5277   85.5255    7.4682 C.ar    1  UNL1        0.0600
     25 C          62.3201   84.6423    6.5505 C.3     1  UNL1        0.0521
     26 N          62.1627   86.0798    8.7090 N.ar    1  UNL1       -0.2414
@<TRIPOS>BOND
     1    16    17    1
     2    17    10    1
     3    10    11   ar
     4    11    12   ar
     5    12    13   ar
     6    13    14   ar
     7    14     1    1
     8     1     2    2
     9     1     3   am
    10     3     4    1
    11     4     5    1
    12     5     6    1
    13     6     7    2
    14     7    18    1
    15    18    19    3
    16    19    20    1
    17    20    21   ar
    18    21    22   ar
    19    22    23   ar
    20    23    24   ar
    21    24    25    1
    22    24    26   ar
    23     6     8    1
    24     8     9    1
    25    14    15   ar
    26    15    10   ar
    27     9     3    1
    28    26    20   ar
@<TRIPOS>MOLECULE
*****
 26 28 0 0 0
SMALL
GASTEIGER

@<TRIPOS>ATOM
      1 C          62.7539   82.7738   14.1426 C.2     1  UNL1        0.2491
      2 O          62.1409   81.6465   14.9193 O.2     1  UNL1       -0.2699
      3 N          62.9001   84.1269   14.7733 N.am    1  UNL1       -0.2754
      4 C          63.5131   85.2542   13.9966 C.3     1  UNL1        0.0981
      5 C          63.6594   86.6073   14.6275 C.3     1  UNL1        0.0442
      6 C          63.1926   86.8329   16.0350 C.2     1  UNL1       -0.0326
      7 C          63.3389   88.1859   16.6658 C.2     1  UNL1        0.0412
      8 C          62.5796   85.7056   16.8117 C.3     1  UNL1        0.0442
      9 C          62.4334   84.3526   16.1809 C.3     1  UNL1        0.0981
     10 C          63.1830   81.1428   10.5501 C.ar    1  UNL1        0.1389
     11 C          64.1541   82.0966    9.9199 C.ar    1  UNL1        0.0369
     12 C          64.6584   83.2762   10.6972 C.ar    1  UNL1        0.0033
     13 C          64.1917   83.5020   12.1047 C.ar    1  UNL1        0.0047
     14 C          63.2206   82.5481   12.7350 C.ar    1  UNL1        0.0566
     15 C          62.7163   81.3685   11.9576 C.ar    1  UNL1        0.0414
     16 C          62.8846   78.5741   10.2999 C.3     1  UNL1        0.2525
     17 O          62.6787   79.9632    9.7728 O.3     1  UNL1       -0.4714
     18 C          63.9519   89.3133   15.8890 C.1     1  UNL1       -0.0583
     19 C          64.5649   90.4406   15.1123 C.1     1  UNL1       -0.0405
     20 C          65.1779   91.5680   14.3356 C.ar    1  UNL1        0.1224
     21 C          66.0407   92.5773   15.0331 C.ar    1  UNL1        0.0276
     22 C          66.6538   93.7047   14.2564 C.ar    1  UNL1        0.0034
     23 C          66.4039   93.8226   12.7821 C.ar    1  UNL1        0.0148
     24 C          65.5410   92.8132   12.0844 C.ar    1  UNL1        0.0600
     25 C          65.2912   92.9312   10.6101 C.3     1  UNL1        0.0521
     26 N          64.9280   91.6859   12.8612 N.ar    1  UNL1       -0.2414
@<TRIPOS>BOND
     1    16    17    1
     2    17    10    1
     3    10    11   ar
     4    11    12   ar
     5    12    13   ar
     6    13    14   ar
     7    14     1    1
     8     1     2    2
     9     1     3   am
    10     3     4    1
    11     4     5    1
    12     5     6    1
    13     6     7    2
    14     7    18    1
    15    18    19    3
    16    19    20    1
    17    20    21   ar
    18    21    22   ar
    19    22    23   ar
    20    23    24   ar
    21    24    25    1
    22    24    26   ar
    23     6     8    1
    24     8     9    1
    25    14    15   ar
    26    15    10   ar
    27     9     3    1
    28    26    20   ar
@<TRIPOS>MOLECULE
*****
 26 28 0 0 0
SMALL
GASTEIGER

@<TRIPOS>ATOM
      1 C          63.1367   85.0806   14.6569 C.2     1  UNL1        0.2491
      2 O          62.5447   84.3038   15.7953 O.2     1  UNL1       -0.2699
      3 N          63.4793   86.5299   14.8359 N.am    1  UNL1       -0.2754
      4 C          64.0714   87.3068   13.6974 C.3     1  UNL1        0.0981
      5 C          64.4140   88.7561   13.8765 C.3     1  UNL1        0.0442
      6 C          64.1646   89.4286   15.1938 C.2     1  UNL1       -0.0326
      7 C          64.5073   90.8779   15.3728 C.2     1  UNL1        0.0412
      8 C          63.5726   88.6517   16.3323 C.3     1  UNL1        0.0442
      9 C          63.2300   87.2024   16.1533 C.3     1  UNL1        0.0981
     10 C          63.3183   84.4515   10.7426 C.ar    1  UNL1        0.1389
     11 C          63.8848   83.0632   10.7047 C.ar    1  UNL1        0.0369
     12 C          64.2019   82.3473   11.9841 C.ar    1  UNL1        0.0033
     13 C          63.9526   83.0197   13.3015 C.ar    1  UNL1        0.0047
     14 C          63.3861   84.4081   13.3395 C.ar    1  UNL1        0.0566
     15 C          63.0689   85.1240   12.0600 C.ar    1  UNL1        0.0414
     16 C          62.8237   84.3899    8.1928 C.3     1  UNL1        0.2525
     17 O          63.0011   85.1674    9.4632 O.3     1  UNL1       -0.4714
     18 C          65.0993   91.6547   14.2344 C.1     1  UNL1       -0.0583
     19 C          65.6913   92.4316   13.0959 C.1     1  UNL1       -0.0405
     20 C          66.2834   93.2084   11.9575 C.ar    1  UNL1        0.1224
     21 C          66.0063   94.6768   11.8272 C.ar    1  UNL1        0.0276
     22 C          66.5983   95.4537   10.6888 C.ar    1  UNL1        0.0034
     23 C          67.4674   94.7621    9.6807 C.ar    1  UNL1        0.0148
     24 C          67.7445   93.2936    9.8109 C.ar    1  UNL1        0.0600
     25 C          68.6136   92.6021    8.8028 C.3     1  UNL1        0.0521
     26 N          67.1525   92.5168   10.9493 N.ar    1  UNL1       -0.2414
@<TRIPOS>BOND
     1    16    17    1
     2    17    10    1
     3    10    11   ar
     4    11    12   ar
     5    12    13   ar
     6    13    14   ar
     7    14     1    1
     8     1     2    2
     9     1     3   am
    10     3     4    1
    11     4     5    1
    12     5     6    1
    13     6     7    2
    14     7    18    1
    15    18    19    3
    16    19    20    1
    17    20    21   ar
    18    21    22   ar
    19    22    23   ar
    20    23    24   ar
    21    24    25    1
    22    24    26   ar
    23     6     8    1
    24     8     9    1
    25    14    15   ar
    26    15    10   ar
    27     9     3    1
    28    26    20   ar
@<TRIPOS>MOLECULE
*****
 26 28 0 0 0
SMALL
GASTEIGER

@<TRIPOS>ATOM
      1 C          61.5094   85.8978    9.7206 C.2     1  UNL1        0.2491
      2 O          60.3935   85.6463    8.7503 O.2     1  UNL1       -0.2699
      3 N          61.8604   87.3026   10.1123 N.am    1  UNL1       -0.2754
      4 C          62.9763   87.5541   11.0826 C.3     1  UNL1        0.0981
      5 C          63.3273   88.9589   11.4742 C.3     1  UNL1        0.0442
      6 C          62.5624   90.1122   10.8955 C.2     1  UNL1       -0.0326
      7 C          62.9134   91.5169   11.2871 C.2     1  UNL1        0.0412
      8 C          61.4465   89.8607    9.9251 C.3     1  UNL1        0.0442
      9 C          61.0955   88.4559    9.5335 C.3     1  UNL1        0.0981
     10 C          62.7446   83.1195   12.2712 C.ar    1  UNL1        0.1389
     11 C          63.8039   82.4380   11.4568 C.ar    1  UNL1        0.0369
     12 C          64.0984   82.9096   10.0637 C.ar    1  UNL1        0.0033
     13 C          63.3336   84.0629    9.4850 C.ar    1  UNL1        0.0047
     14 C          62.2743   84.7445   10.2994 C.ar    1  UNL1        0.0566
     15 C          61.9798   84.2728   11.6925 C.ar    1  UNL1        0.0414
     16 C          61.7226   81.3540   13.8800 C.3     1  UNL1        0.2525
     17 O          62.4501   82.6479   13.6644 O.3     1  UNL1       -0.4714
     18 C          64.0293   91.7684   12.2574 C.1     1  UNL1       -0.0583
     19 C          65.1452   92.0200   13.2277 C.1     1  UNL1       -0.0405
     20 C          66.2611   92.2715   14.1981 C.ar    1  UNL1        0.1224
     21 C          65.9536   92.5400   15.6414 C.ar    1  UNL1        0.0276
     22 C          67.0695   92.7915   16.6118 C.ar    1  UNL1        0.0034
     23 C          68.4928   92.7745   16.1387 C.ar    1  UNL1        0.0148
     24 C          68.8004   92.5060   14.6953 C.ar    1  UNL1        0.0600
     25 C          70.2237   92.4889   14.2223 C.3     1  UNL1        0.0521
     26 N          67.6845   92.2544   13.7250 N.ar    1  UNL1       -0.2414
@<TRIPOS>BOND
     1    16    17    1
     2    17    10    1
     3    10    11   ar
     4    11    12   ar
     5    12    13   ar
     6    13    14   ar
     7    14     1    1
     8     1     2    2
     9     1     3   am
    10     3     4    1
    11     4     5    1
    12     5     6    1
    13     6     7    2
    14     7    18    1
    15    18    19    3
    16    19    20    1
    17    20    21   ar
    18    21    22   ar
    19    22    23   ar
    20    23    24   ar
    21    24    25    1
    22    24    26   ar
    23     6     8    1
    24     8     9    1
    25    14    15   ar
    26    15    10   ar
    27     9     3    1
    28    26    20   ar
@<TRIPOS>MOLECULE
*****
 26 28 0 0 0
SMALL
GASTEIGER

@<TRIPOS>ATOM
      1 C          60.3491   93.1320    2.7563 C.2     1  UNL1        0.2491
      2 O          59.3831   94.1012    2.1421 O.2     1  UNL1       -0.2699
      3 N          59.8819   92.1750    3.8127 N.am    1  UNL1       -0.2754
      4 C          60.8480   91.2057    4.4268 C.3     1  UNL1        0.0981
      5 C          60.3807   90.2487    5.4832 C.3     1  UNL1        0.0442
      6 C          58.9475   90.2611    5.9254 C.2     1  UNL1       -0.0326
      7 C          58.4803   89.3041    6.9818 C.2     1  UNL1        0.0412
      8 C          57.9814   91.2304    5.3113 C.3     1  UNL1        0.0442
      9 C          58.4486   92.1873    4.2549 C.3     1  UNL1        0.0981
     10 C          63.7763   94.2732    1.1123 C.ar    1  UNL1        0.1389
     11 C          64.6489   93.0952    1.4296 C.ar    1  UNL1        0.0369
     12 C          64.0884   91.9294    2.1891 C.ar    1  UNL1        0.0033
     13 C          62.6552   91.9417    2.6313 C.ar    1  UNL1        0.0047
     14 C          61.7825   93.1197    2.3141 C.ar    1  UNL1        0.0566
     15 C          62.3430   94.2854    1.5546 C.ar    1  UNL1        0.0414
     16 C          64.6633   95.2976   -1.1043 C.3     1  UNL1        0.2525
     17 O          64.3368   95.4389    0.3529 O.3     1  UNL1       -0.4714
     18 C          59.4464   88.3349    7.5960 C.1     1  UNL1       -0.0583
     19 C          60.4124   87.3656    8.2101 C.1     1  UNL1       -0.0405
     20 C          61.3785   86.3963    8.8243 C.ar    1  UNL1        0.1224
     21 C          62.3062   85.6061    7.9497 C.ar    1  UNL1        0.0276
     22 C          63.2723   84.6368    8.5639 C.ar    1  UNL1        0.0034
     23 C          63.3106   84.4577   10.0527 C.ar    1  UNL1        0.0148
     24 C          62.3829   85.2479   10.9273 C.ar    1  UNL1        0.0600
     25 C          62.4212   85.0688   12.4161 C.3     1  UNL1        0.0521
     26 N          61.4168   86.2172   10.3131 N.ar    1  UNL1       -0.2414
@<TRIPOS>BOND
     1    16    17    1
     2    17    10    1
     3    10    11   ar
     4    11    12   ar
     5    12    13   ar
     6    13    14   ar
     7    14     1    1
     8     1     2    2
     9     1     3   am
    10     3     4    1
    11     4     5    1
    12     5     6    1
    13     6     7    2
    14     7    18    1
    15    18    19    3
    16    19    20    1
    17    20    21   ar
    18    21    22   ar
    19    22    23   ar
    20    23    24   ar
    21    24    25    1
    22    24    26   ar
    23     6     8    1
    24     8     9    1
    25    14    15   ar
    26    15    10   ar
    27     9     3    1
    28    26    20   ar
