@<TRIPOS>MOLECULE
*****
 37 41 0 0 0
SMALL
GASTEIGER

@<TRIPOS>ATOM
      1 N          63.8750   85.8449   14.3726 N.ar    1  UNL1       -0.2463
      2 N          64.3613   87.0140   13.5684 N.ar    1  UNL1       -0.1691
      3 C          64.1830   88.2521   14.3962 C.ar    1  UNL1        0.1052
      4 C          63.5865   87.8483   15.7119 C.ar    1  UNL1        0.0741
      5 C          63.1921   88.6430   16.9213 C.ar    1  UNL1        0.1480
      6 N          63.3825   90.1308   16.9359 N.pl3   1  UNL1       -0.3412
      7 N          62.6073   87.9500   18.1161 N.ar    1  UNL1       -0.1555
      8 N          62.4170   86.4622   18.1016 N.ar    1  UNL1       -0.2397
      9 C          62.8113   85.6674   16.8921 C.ar    1  UNL1        0.2906
     10 O          62.6210   84.1796   16.8775 O.2     1  UNL1       -0.2641
     11 C          63.3961   86.3605   15.6973 C.ar    1  UNL1        0.1391
     12 H          63.7663   90.5857   16.1517 H       1  UNL1        0.1438
     13 H          63.1236   90.6524   17.7297 H       1  UNL1        0.1438
     14 H          62.0331   86.0073   18.8858 H       1  UNL1        0.1922
     15 C          63.8233   82.3126   10.5620 C.2     1  UNL1        0.2492
     16 O          63.8102   83.4127    9.5424 O.2     1  UNL1       -0.2699
     17 N          63.8427   82.6455   12.0244 N.am    1  UNL1       -0.2741
     18 C          63.8558   81.5455   13.0440 C.3     1  UNL1        0.0938
     19 C          63.8753   81.8785   14.5064 C.3     1  UNL1        0.0236
     20 C          63.8816   83.3116   14.9493 C.3     1  UNL1        0.0279
     21 C          63.8686   84.4117   13.9297 C.3     1  UNL1        0.1251
     22 C          63.8491   84.0787   12.4672 C.3     1  UNL1        0.1179
     23 C          62.5250   80.1197   10.0561 C.2     1  UNL1        0.0048
     24 C          63.8169   80.8795   10.1192 C.2     1  UNL1        0.0579
     25 C          64.5387   89.6490   13.9811 C.ar    1  UNL1        0.0197
     26 C          65.6512   90.3774   14.6754 C.ar    1  UNL1        0.0047
     27 C          66.0070   91.7742   14.2604 C.ar    1  UNL1        0.0375
     28 C          65.2503   92.4427   13.1510 C.ar    1  UNL1        0.1453
     29 C          64.1380   91.7143   12.4568 C.ar    1  UNL1        0.0375
     30 C          63.7822   90.3175   12.8718 C.ar    1  UNL1        0.0047
     31 O          65.6061   93.8396   12.7360 O.3     1  UNL1       -0.4535
     32 C          66.3334   94.0762   11.4456 C.ar    1  UNL1        0.1453
     33 C          67.0098   92.9349   10.7457 C.ar    1  UNL1        0.0375
     34 C          67.7372   93.1717    9.4553 C.ar    1  UNL1        0.0031
     35 C          67.7880   94.5497    8.8649 C.ar    1  UNL1        0.0002
     36 C          67.1115   95.6909    9.5648 C.ar    1  UNL1        0.0031
     37 C          66.3843   95.4542   10.8552 C.ar    1  UNL1        0.0375
@<TRIPOS>BOND
     1    23    24    2
     2    24    15    1
     3    15    16    2
     4    15    17   am
     5    17    18    1
     6    18    19    1
     7    19    20    1
     8    20    21    1
     9    21     1    1
    10     1     2   ar
    11     2     3   ar
    12     3    25    1
    13    25    26   ar
    14    26    27   ar
    15    27    28   ar
    16    28    31    1
    17    31    32    1
    18    32    33   ar
    19    33    34   ar
    20    34    35   ar
    21    35    36   ar
    22    36    37   ar
    23    28    29   ar
    24    29    30   ar
    25     3     4   ar
    26     4     5   ar
    27     5     6    1
    28     5     7   ar
    29     7     8   ar
    30     8     9   ar
    31     9    10    2
    32     9    11   ar
    33    21    22    1
    34    22    17    1
    35    11     1   ar
    36    30    25   ar
    37    11     4   ar
    38    37    32   ar
    39     6    12    1
    40     6    13    1
    41     8    14    1
@<TRIPOS>MOLECULE
*****
 37 41 0 0 0
SMALL
GASTEIGER

@<TRIPOS>ATOM
      1 N          64.1244   89.0990   14.0942 N.ar    1  UNL1       -0.2463
      2 N          64.1913   87.6672   14.5362 N.ar    1  UNL1       -0.1691
      3 C          63.5654   86.8222   13.4666 C.ar    1  UNL1        0.1052
      4 C          63.1116   87.7317   12.3635 C.ar    1  UNL1        0.0741
      5 C          62.4285   87.4604   11.0560 C.ar    1  UNL1        0.1480
      6 N          62.0830   86.0532   10.6681 N.pl3   1  UNL1       -0.3412
      7 N          62.0908   88.5962   10.1363 N.ar    1  UNL1       -0.1555
      8 N          62.4363   90.0034   10.5242 N.ar    1  UNL1       -0.2397
      9 C          63.1194   90.2748   11.8317 C.ar    1  UNL1        0.2906
     10 O          63.4649   91.6819   12.2196 O.2     1  UNL1       -0.2641
     11 C          63.4571   89.1389   12.7514 C.ar    1  UNL1        0.1391
     12 H          62.3047   85.3077   11.2717 H       1  UNL1        0.1438
     13 H          61.6347   85.8751    9.8099 H       1  UNL1        0.1438
     14 H          62.2147   90.7489    9.9206 H       1  UNL1        0.1922
     15 C          67.7547   92.7362   14.8631 C.2     1  UNL1        0.2492
     16 O          68.5485   92.1866   13.7151 O.2     1  UNL1       -0.2699
     17 N          66.4503   92.1018   15.2449 N.am    1  UNL1       -0.2741
     18 C          65.6565   92.6513   16.3929 C.3     1  UNL1        0.0938
     19 C          64.3520   92.0168   16.7746 C.3     1  UNL1        0.0236
     20 C          63.8414   90.8327   16.0084 C.3     1  UNL1        0.0279
     21 C          64.6351   90.2831   14.8604 C.3     1  UNL1        0.1251
     22 C          65.9396   90.9177   14.4787 C.3     1  UNL1        0.1179
     23 C          69.7038   93.9770   16.0515 C.2     1  UNL1        0.0048
     24 C          68.2654   93.9203   15.6294 C.2     1  UNL1        0.0579
     25 C          63.4190   85.3296   13.4950 C.ar    1  UNL1        0.0197
     26 C          62.3524   84.6965   14.3387 C.ar    1  UNL1        0.0047
     27 C          62.2059   83.2040   14.3671 C.ar    1  UNL1        0.0375
     28 C          63.1260   82.3444   13.5519 C.ar    1  UNL1        0.1453
     29 C          64.1926   82.9775   12.7083 C.ar    1  UNL1        0.0375
     30 C          64.3390   84.4700   12.6799 C.ar    1  UNL1        0.0047
     31 O          62.9796   80.8519   13.5804 O.3     1  UNL1       -0.4535
     32 C          62.8792   80.0836   12.2960 C.ar    1  UNL1        0.1453
     33 C          63.0660   80.7873   10.9845 C.ar    1  UNL1        0.0375
     34 C          62.9656   80.0189    9.7001 C.ar    1  UNL1        0.0031
     35 C          62.6785   78.5469    9.7272 C.ar    1  UNL1        0.0002
     36 C          62.4918   77.8432   11.0387 C.ar    1  UNL1        0.0031
     37 C          62.5921   78.6115   12.3230 C.ar    1  UNL1        0.0375
@<TRIPOS>BOND
     1    23    24    2
     2    24    15    1
     3    15    16    2
     4    15    17   am
     5    17    18    1
     6    18    19    1
     7    19    20    1
     8    20    21    1
     9    21     1    1
    10     1     2   ar
    11     2     3   ar
    12     3    25    1
    13    25    26   ar
    14    26    27   ar
    15    27    28   ar
    16    28    31    1
    17    31    32    1
    18    32    33   ar
    19    33    34   ar
    20    34    35   ar
    21    35    36   ar
    22    36    37   ar
    23    28    29   ar
    24    29    30   ar
    25     3     4   ar
    26     4     5   ar
    27     5     6    1
    28     5     7   ar
    29     7     8   ar
    30     8     9   ar
    31     9    10    2
    32     9    11   ar
    33    21    22    1
    34    22    17    1
    35    11     1   ar
    36    30    25   ar
    37    11     4   ar
    38    37    32   ar
    39     6    12    1
    40     6    13    1
    41     8    14    1
@<TRIPOS>MOLECULE
*****
 37 41 0 0 0
SMALL
GASTEIGER

@<TRIPOS>ATOM
      1 N          63.5998   87.2708   13.4601 N.ar    1  UNL1       -0.2463
      2 N          64.1808   88.4041   12.6676 N.ar    1  UNL1       -0.1691
      3 C          64.3336   89.5808   13.5852 C.ar    1  UNL1        0.1052
      4 C          63.8471   89.1748   14.9447 C.ar    1  UNL1        0.0741
      5 C          63.7585   89.9206   16.2431 C.ar    1  UNL1        0.1480
      6 N          64.2120   91.3483   16.3204 N.pl3   1  UNL1       -0.3412
      7 N          63.2163   89.2388   17.4642 N.ar    1  UNL1       -0.1555
      8 N          62.7628   87.8111   17.3869 N.ar    1  UNL1       -0.2397
      9 C          62.8514   87.0652   16.0885 C.ar    1  UNL1        0.2906
     10 O          62.3979   85.6375   16.0112 O.2     1  UNL1       -0.2641
     11 C          63.3936   87.7471   14.8674 C.ar    1  UNL1        0.1391
     12 H          64.5678   91.7959   15.5189 H       1  UNL1        0.1438
     13 H          64.1538   91.8379   17.1726 H       1  UNL1        0.1438
     14 H          62.4069   87.3635   18.1884 H       1  UNL1        0.1922
     15 C          63.6552   82.1073   14.0387 C.2     1  UNL1        0.2492
     16 O          64.3205   82.2640   15.3739 O.2     1  UNL1       -0.2699
     17 N          63.3087   83.3197   13.2264 N.am    1  UNL1       -0.2741
     18 C          62.6434   83.1630   11.8912 C.3     1  UNL1        0.0938
     19 C          62.2970   84.3755   11.0789 C.3     1  UNL1        0.0236
     20 C          62.6158   85.7447   11.6019 C.3     1  UNL1        0.0279
     21 C          63.2810   85.9015   12.9371 C.3     1  UNL1        0.1251
     22 C          63.6275   84.6890   13.7494 C.3     1  UNL1        0.1179
     23 C          61.9734   80.1505   13.7334 C.2     1  UNL1        0.0048
     24 C          63.3364   80.7380   13.5157 C.2     1  UNL1        0.0579
     25 C          64.8775   90.9272   13.2092 C.ar    1  UNL1        0.0197
     26 C          65.9068   91.5893   14.0766 C.ar    1  UNL1        0.0047
     27 C          66.4507   92.9357   13.7007 C.ar    1  UNL1        0.0375
     28 C          65.9653   93.6201   12.4573 C.ar    1  UNL1        0.1453
     29 C          64.9361   92.9581   11.5899 C.ar    1  UNL1        0.0375
     30 C          64.3922   91.6117   11.9659 C.ar    1  UNL1        0.0047
     31 O          66.5092   94.9666   12.0813 O.3     1  UNL1       -0.4535
     32 C          66.4534   95.4261   10.6546 C.ar    1  UNL1        0.1453
     33 C          67.4558   94.9157    9.6624 C.ar    1  UNL1        0.0375
     34 C          67.4000   95.3754    8.2356 C.ar    1  UNL1        0.0031
     35 C          66.3416   96.3455    7.8010 C.ar    1  UNL1        0.0002
     36 C          65.3391   96.8559    8.7933 C.ar    1  UNL1        0.0031
     37 C          65.3950   96.3963   10.2200 C.ar    1  UNL1        0.0375
@<TRIPOS>BOND
     1    23    24    2
     2    24    15    1
     3    15    16    2
     4    15    17   am
     5    17    18    1
     6    18    19    1
     7    19    20    1
     8    20    21    1
     9    21     1    1
    10     1     2   ar
    11     2     3   ar
    12     3    25    1
    13    25    26   ar
    14    26    27   ar
    15    27    28   ar
    16    28    31    1
    17    31    32    1
    18    32    33   ar
    19    33    34   ar
    20    34    35   ar
    21    35    36   ar
    22    36    37   ar
    23    28    29   ar
    24    29    30   ar
    25     3     4   ar
    26     4     5   ar
    27     5     6    1
    28     5     7   ar
    29     7     8   ar
    30     8     9   ar
    31     9    10    2
    32     9    11   ar
    33    21    22    1
    34    22    17    1
    35    11     1   ar
    36    30    25   ar
    37    11     4   ar
    38    37    32   ar
    39     6    12    1
    40     6    13    1
    41     8    14    1
@<TRIPOS>MOLECULE
*****
 37 41 0 0 0
SMALL
GASTEIGER

@<TRIPOS>ATOM
      1 N          63.6727   89.6106   13.5172 N.ar    1  UNL1       -0.2463
      2 N          62.8548   90.0566   12.3415 N.ar    1  UNL1       -0.1691
      3 C          62.3798   88.8325   11.6163 C.ar    1  UNL1        0.1052
      4 C          62.9040   87.6300   12.3438 C.ar    1  UNL1        0.0741
      5 C          62.7570   86.1593   12.0882 C.ar    1  UNL1        0.1480
      6 N          61.9579   85.6784   10.9134 N.pl3   1  UNL1       -0.3412
      7 N          63.4090   85.1695   13.0075 N.ar    1  UNL1       -0.1555
      8 N          64.2081   85.6504   14.1823 N.ar    1  UNL1       -0.2397
      9 C          64.3551   87.1211   14.4379 C.ar    1  UNL1        0.2906
     10 O          65.1542   87.6020   15.6127 O.2     1  UNL1       -0.2641
     11 C          63.7031   88.1109   13.5186 C.ar    1  UNL1        0.1391
     12 H          61.5299   86.3280   10.3100 H       1  UNL1        0.1438
     13 H          61.8614   84.7131   10.7456 H       1  UNL1        0.1438
     14 H          64.6361   85.0007   14.7856 H       1  UNL1        0.1922
     15 C          67.6822   92.6186   14.8865 C.2     1  UNL1        0.2492
     16 O          68.3472   92.3300   13.5733 O.2     1  UNL1       -0.2699
     17 N          66.3473   92.0110   15.2008 N.am    1  UNL1       -0.2741
     18 C          65.6823   92.2996   16.5140 C.3     1  UNL1        0.0938
     19 C          64.3475   91.6919   16.8282 C.3     1  UNL1        0.0236
     20 C          63.6776   90.7956   15.8293 C.3     1  UNL1        0.0279
     21 C          64.3425   90.5069   14.5162 C.3     1  UNL1        0.1251
     22 C          65.6775   91.1146   14.2019 C.3     1  UNL1        0.1179
     23 C          69.8078   93.8459   15.7386 C.2     1  UNL1        0.0048
     24 C          68.3521   93.5150   15.8855 C.2     1  UNL1        0.0579
     25 C          61.5297   88.8141   10.3806 C.ar    1  UNL1        0.0197
     26 C          61.6205   87.6614    9.4249 C.ar    1  UNL1        0.0047
     27 C          60.7704   87.6430    8.1891 C.ar    1  UNL1        0.0375
     28 C          59.8296   88.7772    7.9091 C.ar    1  UNL1        0.1453
     29 C          59.7388   89.9298    8.8647 C.ar    1  UNL1        0.0375
     30 C          60.5889   89.9482   10.1005 C.ar    1  UNL1        0.0047
     31 O          58.9795   88.7588    6.6733 O.3     1  UNL1       -0.4535
     32 C          58.8918   89.9789    5.8052 C.ar    1  UNL1        0.1453
     33 C          57.5579   90.6040    5.5225 C.ar    1  UNL1        0.0375
     34 C          57.4703   91.8242    4.6543 C.ar    1  UNL1        0.0031
     35 C          58.7166   92.4191    4.0689 C.ar    1  UNL1        0.0002
     36 C          60.0505   91.7940    4.3516 C.ar    1  UNL1        0.0031
     37 C          60.1381   90.5739    5.2197 C.ar    1  UNL1        0.0375
@<TRIPOS>BOND
     1    23    24    2
     2    24    15    1
     3    15    16    2
     4    15    17   am
     5    17    18    1
     6    18    19    1
     7    19    20    1
     8    20    21    1
     9    21     1    1
    10     1     2   ar
    11     2     3   ar
    12     3    25    1
    13    25    26   ar
    14    26    27   ar
    15    27    28   ar
    16    28    31    1
    17    31    32    1
    18    32    33   ar
    19    33    34   ar
    20    34    35   ar
    21    35    36   ar
    22    36    37   ar
    23    28    29   ar
    24    29    30   ar
    25     3     4   ar
    26     4     5   ar
    27     5     6    1
    28     5     7   ar
    29     7     8   ar
    30     8     9   ar
    31     9    10    2
    32     9    11   ar
    33    21    22    1
    34    22    17    1
    35    11     1   ar
    36    30    25   ar
    37    11     4   ar
    38    37    32   ar
    39     6    12    1
    40     6    13    1
    41     8    14    1
@<TRIPOS>MOLECULE
*****
 37 41 0 0 0
SMALL
GASTEIGER

@<TRIPOS>ATOM
      1 N          63.8626   85.7643   14.2245 N.ar    1  UNL1       -0.2463
      2 N          64.3256   86.9585   13.4438 N.ar    1  UNL1       -0.1691
      3 C          64.1404   88.1741   14.3029 C.ar    1  UNL1        0.1052
      4 C          63.5630   87.7312   15.6146 C.ar    1  UNL1        0.0741
      5 C          63.1714   88.4916   16.8467 C.ar    1  UNL1        0.1480
      6 N          63.3431   89.9810   16.8952 N.pl3   1  UNL1       -0.3412
      7 N          62.6081   87.7627   18.0305 N.ar    1  UNL1       -0.1555
      8 N          62.4364   86.2734   17.9821 N.ar    1  UNL1       -0.2397
      9 C          62.8280   85.5129   16.7499 C.ar    1  UNL1        0.2906
     10 O          62.6563   84.0236   16.7015 O.2     1  UNL1       -0.2641
     11 C          63.3913   86.2418   15.5661 C.ar    1  UNL1        0.1391
     12 H          63.7128   90.4594   16.1182 H       1  UNL1        0.1438
     13 H          63.0860   90.4801   17.7039 H       1  UNL1        0.1438
     14 H          62.0666   85.7950   18.7590 H       1  UNL1        0.1922
     15 C          61.5763   81.1080   13.9219 C.2     1  UNL1        0.2492
     16 O          60.4191   81.6240   14.7247 O.2     1  UNL1       -0.2699
     17 N          62.7265   82.0140   13.5962 N.am    1  UNL1       -0.2741
     18 C          63.8837   81.4979   12.7934 C.3     1  UNL1        0.0938
     19 C          65.0339   82.4040   12.4676 C.3     1  UNL1        0.0236
     20 C          65.0268   83.8261   12.9447 C.3     1  UNL1        0.0279
     21 C          63.8697   84.3422   13.7475 C.3     1  UNL1        0.1251
     22 C          62.7194   83.4361   14.0732 C.3     1  UNL1        0.1179
     23 C          62.4266   79.2938   12.2677 C.2     1  UNL1        0.0048
     24 C          61.5834   79.6859   13.4449 C.2     1  UNL1        0.0579
     25 C          64.4741   89.5849   13.9179 C.ar    1  UNL1        0.0197
     26 C          63.7052   90.2659   12.8246 C.ar    1  UNL1        0.0047
     27 C          64.0389   91.6767   12.4396 C.ar    1  UNL1        0.0375
     28 C          65.1413   92.4066   13.1479 C.ar    1  UNL1        0.1453
     29 C          65.9101   91.7257   14.2412 C.ar    1  UNL1        0.0375
     30 C          65.5765   90.3149   14.6262 C.ar    1  UNL1        0.0047
     31 O          65.4750   93.8175   12.7630 O.3     1  UNL1       -0.4535
     32 C          66.2460   94.0893   11.5053 C.ar    1  UNL1        0.1453
     33 C          66.3495   95.4893   10.9768 C.ar    1  UNL1        0.0375
     34 C          67.1206   95.7610    9.7191 C.ar    1  UNL1        0.0031
     35 C          67.7880   94.6328    8.9900 C.ar    1  UNL1        0.0002
     36 C          67.6844   93.2328    9.5185 C.ar    1  UNL1        0.0031
     37 C          66.9134   92.9611   10.7761 C.ar    1  UNL1        0.0375
@<TRIPOS>BOND
     1    23    24    2
     2    24    15    1
     3    15    16    2
     4    15    17   am
     5    17    18    1
     6    18    19    1
     7    19    20    1
     8    20    21    1
     9    21     1    1
    10     1     2   ar
    11     2     3   ar
    12     3    25    1
    13    25    26   ar
    14    26    27   ar
    15    27    28   ar
    16    28    31    1
    17    31    32    1
    18    32    33   ar
    19    33    34   ar
    20    34    35   ar
    21    35    36   ar
    22    36    37   ar
    23    28    29   ar
    24    29    30   ar
    25     3     4   ar
    26     4     5   ar
    27     5     6    1
    28     5     7   ar
    29     7     8   ar
    30     8     9   ar
    31     9    10    2
    32     9    11   ar
    33    21    22    1
    34    22    17    1
    35    11     1   ar
    36    30    25   ar
    37    11     4   ar
    38    37    32   ar
    39     6    12    1
    40     6    13    1
    41     8    14    1
@<TRIPOS>MOLECULE
*****
 37 41 0 0 0
SMALL
GASTEIGER

@<TRIPOS>ATOM
      1 N          62.8676   86.2210   11.6745 N.ar    1  UNL1       -0.2463
      2 N          63.6841   86.9999   12.6628 N.ar    1  UNL1       -0.1691
      3 C          63.2885   88.4428   12.5557 C.ar    1  UNL1        0.1052
      4 C          62.2276   88.5557   11.5013 C.ar    1  UNL1        0.0741
      5 C          61.4649   89.7315   10.9668 C.ar    1  UNL1        0.1480
      6 N          61.7250   91.1047   11.5115 N.pl3   1  UNL1       -0.3412
      7 N          60.4420   89.5340    9.8876 N.ar    1  UNL1       -0.1555
      8 N          60.1818   88.1608    9.3430 N.ar    1  UNL1       -0.2397
      9 C          60.9446   86.9851    9.8775 C.ar    1  UNL1        0.2906
     10 O          60.6844   85.6119    9.3329 O.2     1  UNL1       -0.2641
     11 C          61.9675   87.1825   10.9567 C.ar    1  UNL1        0.1391
     12 H          62.3964   91.2342   12.2198 H       1  UNL1        0.1438
     13 H          61.2244   91.8764   11.1606 H       1  UNL1        0.1438
     14 H          59.5104   88.0312    8.6347 H       1  UNL1        0.1922
     15 C          61.9709   81.3667   13.2967 C.2     1  UNL1        0.2492
     16 O          61.3803   81.9006   14.5679 O.2     1  UNL1       -0.2699
     17 N          62.4904   82.3132   12.2555 N.am    1  UNL1       -0.2741
     18 C          63.0810   81.7793   10.9842 C.3     1  UNL1        0.0938
     19 C          63.6005   82.7260    9.9431 C.3     1  UNL1        0.0236
     20 C          63.5294   84.2065   10.1732 C.3     1  UNL1        0.0279
     21 C          62.9388   84.7404   11.4444 C.3     1  UNL1        0.1251
     22 C          62.4192   83.7938   12.4856 C.3     1  UNL1        0.1179
     23 C          62.7934   79.0130   14.0275 C.2     1  UNL1        0.0048
     24 C          62.0421   79.8861   13.0666 C.2     1  UNL1        0.0579
     25 C          63.8545   89.5743   13.3616 C.ar    1  UNL1        0.0197
     26 C          64.6927   90.6244   12.6946 C.ar    1  UNL1        0.0047
     27 C          65.2586   91.7559   13.5005 C.ar    1  UNL1        0.0375
     28 C          64.9865   91.8373   14.9734 C.ar    1  UNL1        0.1453
     29 C          64.1484   90.7872   15.6403 C.ar    1  UNL1        0.0375
     30 C          63.5824   89.6557   14.8344 C.ar    1  UNL1        0.0047
     31 O          65.5525   92.9688   15.7792 O.3     1  UNL1       -0.4535
     32 C          67.0378   93.1101   15.9335 C.ar    1  UNL1        0.1453
     33 C          67.8527   91.9559   16.4373 C.ar    1  UNL1        0.0375
     34 C          69.3381   92.0973   16.5915 C.ar    1  UNL1        0.0031
     35 C          70.0085   93.3928   16.2420 C.ar    1  UNL1        0.0002
     36 C          69.1936   94.5470   15.7383 C.ar    1  UNL1        0.0031
     37 C          67.7083   94.4056   15.5840 C.ar    1  UNL1        0.0375
@<TRIPOS>BOND
     1    23    24    2
     2    24    15    1
     3    15    16    2
     4    15    17   am
     5    17    18    1
     6    18    19    1
     7    19    20    1
     8    20    21    1
     9    21     1    1
    10     1     2   ar
    11     2     3   ar
    12     3    25    1
    13    25    26   ar
    14    26    27   ar
    15    27    28   ar
    16    28    31    1
    17    31    32    1
    18    32    33   ar
    19    33    34   ar
    20    34    35   ar
    21    35    36   ar
    22    36    37   ar
    23    28    29   ar
    24    29    30   ar
    25     3     4   ar
    26     4     5   ar
    27     5     6    1
    28     5     7   ar
    29     7     8   ar
    30     8     9   ar
    31     9    10    2
    32     9    11   ar
    33    21    22    1
    34    22    17    1
    35    11     1   ar
    36    30    25   ar
    37    11     4   ar
    38    37    32   ar
    39     6    12    1
    40     6    13    1
    41     8    14    1
@<TRIPOS>MOLECULE
*****
 37 41 0 0 0
SMALL
GASTEIGER

@<TRIPOS>ATOM
      1 N          63.8519   89.2743   13.1993 N.ar    1  UNL1       -0.2463
      2 N          63.8353   87.8610   12.6971 N.ar    1  UNL1       -0.1691
      3 C          63.5985   86.9555   13.8693 C.ar    1  UNL1        0.1052
      4 C          63.4688   87.8091   15.0958 C.ar    1  UNL1        0.0741
      5 C          63.2283   87.4666   16.5362 C.ar    1  UNL1        0.1480
      6 N          63.0717   86.0334   16.9503 N.pl3   1  UNL1       -0.3412
      7 N          63.1444   88.5572   17.5625 N.ar    1  UNL1       -0.1555
      8 N          63.3010   89.9904   17.1485 N.ar    1  UNL1       -0.2397
      9 C          63.5415   90.3330   15.7081 C.ar    1  UNL1        0.2906
     10 O          63.6981   91.7661   15.2940 O.2     1  UNL1       -0.2641
     11 C          63.6254   89.2423   14.6818 C.ar    1  UNL1        0.1391
     12 H          63.1267   85.3176   16.2767 H       1  UNL1        0.1438
     13 H          62.9138   85.8086   17.8957 H       1  UNL1        0.1438
     14 H          63.2459   90.7063   17.8221 H       1  UNL1        0.1922
     15 C          66.2294   93.8261   12.4060 C.2     1  UNL1        0.2492
     16 O          67.0045   93.6427   13.6770 O.2     1  UNL1       -0.2699
     17 N          65.2475   92.7798   11.9687 N.am    1  UNL1       -0.2741
     18 C          64.4724   92.9632   10.6977 C.3     1  UNL1        0.0938
     19 C          63.4905   91.9169   10.2605 C.3     1  UNL1        0.0236
     20 C          63.2837   90.6873   11.0944 C.3     1  UNL1        0.0279
     21 C          64.0587   90.5039   12.3654 C.3     1  UNL1        0.1251
     22 C          65.0407   91.5503   12.8026 C.3     1  UNL1        0.1179
     23 C          67.1458   94.9574   10.2541 C.2     1  UNL1        0.0048
     24 C          66.4362   95.0556   11.5721 C.2     1  UNL1        0.0579
     25 C          63.5075   85.4589   13.8230 C.ar    1  UNL1        0.0197
     26 C          62.3643   84.7987   13.1105 C.ar    1  UNL1        0.0047
     27 C          62.2733   83.3022   13.0643 C.ar    1  UNL1        0.0375
     28 C          63.3253   82.4659   13.7304 C.ar    1  UNL1        0.1453
     29 C          64.4683   83.1260   14.4429 C.ar    1  UNL1        0.0375
     30 C          64.5594   84.6225   14.4891 C.ar    1  UNL1        0.0047
     31 O          63.2342   80.9693   13.6842 O.3     1  UNL1       -0.4535
     32 C          63.0514   80.2694   12.3702 C.ar    1  UNL1        0.1453
     33 C          63.2740   81.0133   11.0868 C.ar    1  UNL1        0.0375
     34 C          63.0912   80.3133    9.7727 C.ar    1  UNL1        0.0031
     35 C          62.6858   78.8694    9.7421 C.ar    1  UNL1        0.0002
     36 C          62.4631   78.1255   11.0255 C.ar    1  UNL1        0.0031
     37 C          62.6460   78.8255   12.3395 C.ar    1  UNL1        0.0375
@<TRIPOS>BOND
     1    23    24    2
     2    24    15    1
     3    15    16    2
     4    15    17   am
     5    17    18    1
     6    18    19    1
     7    19    20    1
     8    20    21    1
     9    21     1    1
    10     1     2   ar
    11     2     3   ar
    12     3    25    1
    13    25    26   ar
    14    26    27   ar
    15    27    28   ar
    16    28    31    1
    17    31    32    1
    18    32    33   ar
    19    33    34   ar
    20    34    35   ar
    21    35    36   ar
    22    36    37   ar
    23    28    29   ar
    24    29    30   ar
    25     3     4   ar
    26     4     5   ar
    27     5     6    1
    28     5     7   ar
    29     7     8   ar
    30     8     9   ar
    31     9    10    2
    32     9    11   ar
    33    21    22    1
    34    22    17    1
    35    11     1   ar
    36    30    25   ar
    37    11     4   ar
    38    37    32   ar
    39     6    12    1
    40     6    13    1
    41     8    14    1
@<TRIPOS>MOLECULE
*****
 37 41 0 0 0
SMALL
GASTEIGER

@<TRIPOS>ATOM
      1 N          72.2440   73.7055   13.5646 N.ar    1  UNL1       -0.2463
      2 N          72.1310   74.6482   12.4034 N.ar    1  UNL1       -0.1691
      3 C          72.5263   76.0157   12.8764 C.ar    1  UNL1        0.1052
      4 C          72.8837   75.9181   14.3299 C.ar    1  UNL1        0.0741
      5 C          73.3454   76.9449   15.3211 C.ar    1  UNL1        0.1480
      6 N          73.5199   78.3727   14.8957 N.pl3   1  UNL1       -0.3412
      7 N          73.6327   76.5439   16.7376 N.ar    1  UNL1       -0.1555
      8 N          73.4582   75.1161   17.1630 N.ar    1  UNL1       -0.2397
      9 C          72.9965   74.0893   16.1718 C.ar    1  UNL1        0.2906
     10 O          72.8221   72.6615   16.5972 O.2     1  UNL1       -0.2641
     11 C          72.7092   74.4903   14.7553 C.ar    1  UNL1        0.1391
     12 H          73.3313   78.6359   13.9660 H       1  UNL1        0.1438
     13 H          73.8229   79.0466   15.5463 H       1  UNL1        0.1438
     14 H          73.6468   74.8529   18.0927 H       1  UNL1        0.1922
     15 C          69.0605   69.7819   12.3519 C.2     1  UNL1        0.2492
     16 O          68.0679   70.7592   11.7956 O.2     1  UNL1       -0.2699
     17 N          70.3527   70.2740   12.9333 N.am    1  UNL1       -0.2741
     18 C          71.3453   69.2967   13.4896 C.3     1  UNL1        0.0938
     19 C          72.6375   69.7890   14.0710 C.3     1  UNL1        0.0236
     20 C          72.9370   71.2586   14.0960 C.3     1  UNL1        0.0279
     21 C          71.9445   72.2359   13.5397 C.3     1  UNL1        0.1251
     22 C          70.6522   71.7436   12.9583 C.3     1  UNL1        0.1179
     23 C          69.0493   67.5090   11.0933 C.2     1  UNL1        0.0048
     24 C          68.7610   68.3123   12.3269 C.2     1  UNL1        0.0579
     25 C          72.5586   77.2620   12.0423 C.ar    1  UNL1        0.0197
     26 C          71.5489   78.3467   12.2752 C.ar    1  UNL1        0.0047
     27 C          71.5812   79.5930   11.4411 C.ar    1  UNL1        0.0375
     28 C          72.6231   79.7546   10.3741 C.ar    1  UNL1        0.1453
     29 C          73.6327   78.6700   10.1413 C.ar    1  UNL1        0.0375
     30 C          73.6004   77.4237   10.9754 C.ar    1  UNL1        0.0047
     31 O          72.6553   81.0009    9.5400 O.3     1  UNL1       -0.4535
     32 C          72.2683   80.9444    8.0920 C.ar    1  UNL1        0.1453
     33 C          72.3428   82.1813    7.2468 C.ar    1  UNL1        0.0375
     34 C          71.9557   82.1247    5.7986 C.ar    1  UNL1        0.0031
     35 C          71.4940   80.8311    5.1958 C.ar    1  UNL1        0.0002
     36 C          71.4194   79.5942    6.0409 C.ar    1  UNL1        0.0031
     37 C          71.8065   79.6508    7.4890 C.ar    1  UNL1        0.0375
@<TRIPOS>BOND
     1    23    24    2
     2    24    15    1
     3    15    16    2
     4    15    17   am
     5    17    18    1
     6    18    19    1
     7    19    20    1
     8    20    21    1
     9    21     1    1
    10     1     2   ar
    11     2     3   ar
    12     3    25    1
    13    25    26   ar
    14    26    27   ar
    15    27    28   ar
    16    28    31    1
    17    31    32    1
    18    32    33   ar
    19    33    34   ar
    20    34    35   ar
    21    35    36   ar
    22    36    37   ar
    23    28    29   ar
    24    29    30   ar
    25     3     4   ar
    26     4     5   ar
    27     5     6    1
    28     5     7   ar
    29     7     8   ar
    30     8     9   ar
    31     9    10    2
    32     9    11   ar
    33    21    22    1
    34    22    17    1
    35    11     1   ar
    36    30    25   ar
    37    11     4   ar
    38    37    32   ar
    39     6    12    1
    40     6    13    1
    41     8    14    1
@<TRIPOS>MOLECULE
*****
 37 41 0 0 0
SMALL
GASTEIGER

@<TRIPOS>ATOM
      1 N          62.9072   85.9989   12.7533 N.ar    1  UNL1       -0.2463
      2 N          63.6194   86.9105   13.7081 N.ar    1  UNL1       -0.1691
      3 C          63.5648   88.3013   13.1491 C.ar    1  UNL1        0.1052
      4 C          62.8188   88.2493   11.8487 C.ar    1  UNL1        0.0741
      5 C          62.4571   89.3139   10.8559 C.ar    1  UNL1        0.1480
      6 N          62.8635   90.7369   11.1004 N.pl3   1  UNL1       -0.3412
      7 N          61.6890   88.9554    9.6184 N.ar    1  UNL1       -0.1555
      8 N          61.2826   87.5323    9.3738 N.ar    1  UNL1       -0.2397
      9 C          61.6443   86.4678   10.3667 C.ar    1  UNL1        0.2906
     10 O          61.2378   85.0448   10.1221 O.2     1  UNL1       -0.2641
     11 C          62.4124   86.8263   11.6042 C.ar    1  UNL1        0.1391
     12 H          63.3677   90.9722   11.9127 H       1  UNL1        0.1438
     13 H          62.6261   91.4356   10.4488 H       1  UNL1        0.1438
     14 H          60.7784   87.2971    8.5616 H       1  UNL1        0.1922
     15 C          63.2253   81.1816   10.8316 C.2     1  UNL1        0.2492
     16 O          63.7543   81.7317    9.5403 O.2     1  UNL1       -0.2699
     17 N          62.8813   82.1108   11.9577 N.am    1  UNL1       -0.2741
     18 C          62.3524   81.5608   13.2491 C.3     1  UNL1        0.0938
     19 C          62.0084   82.4901   14.3752 C.3     1  UNL1        0.0236
     20 C          62.1933   83.9694   14.2099 C.3     1  UNL1        0.0279
     21 C          62.7223   84.5195   12.9186 C.3     1  UNL1        0.1251
     22 C          63.0663   83.5902   11.7924 C.3     1  UNL1        0.1179
     23 C          62.7777   78.8406    9.7974 C.2     1  UNL1        0.0048
     24 C          63.0404   79.7023   10.9969 C.2     1  UNL1        0.0579
     25 C          64.1529   89.5288   13.7796 C.ar    1  UNL1        0.0197
     26 C          65.0784   90.4072   12.9908 C.ar    1  UNL1        0.0047
     27 C          65.6664   91.6346   13.6213 C.ar    1  UNL1        0.0375
     28 C          65.3291   91.9837   15.0406 C.ar    1  UNL1        0.1453
     29 C          64.4037   91.1053   15.8293 C.ar    1  UNL1        0.0375
     30 C          63.8156   89.8779   15.1988 C.ar    1  UNL1        0.0047
     31 O          65.9172   93.2111   15.6711 O.3     1  UNL1       -0.4535
     32 C          67.3975   93.3030   15.8956 C.ar    1  UNL1        0.1453
     33 C          68.1047   94.6124   15.7075 C.ar    1  UNL1        0.0375
     34 C          69.5851   94.7043   15.9320 C.ar    1  UNL1        0.0031
     35 C          70.3581   93.4867   16.3445 C.ar    1  UNL1        0.0002
     36 C          69.6508   92.1774   16.5325 C.ar    1  UNL1        0.0031
     37 C          68.1706   92.0855   16.3080 C.ar    1  UNL1        0.0375
@<TRIPOS>BOND
     1    23    24    2
     2    24    15    1
     3    15    16    2
     4    15    17   am
     5    17    18    1
     6    18    19    1
     7    19    20    1
     8    20    21    1
     9    21     1    1
    10     1     2   ar
    11     2     3   ar
    12     3    25    1
    13    25    26   ar
    14    26    27   ar
    15    27    28   ar
    16    28    31    1
    17    31    32    1
    18    32    33   ar
    19    33    34   ar
    20    34    35   ar
    21    35    36   ar
    22    36    37   ar
    23    28    29   ar
    24    29    30   ar
    25     3     4   ar
    26     4     5   ar
    27     5     6    1
    28     5     7   ar
    29     7     8   ar
    30     8     9   ar
    31     9    10    2
    32     9    11   ar
    33    21    22    1
    34    22    17    1
    35    11     1   ar
    36    30    25   ar
    37    11     4   ar
    38    37    32   ar
    39     6    12    1
    40     6    13    1
    41     8    14    1
