@<TRIPOS>MOLECULE
*****
 29 31 0 0 0
SMALL
GASTEIGER

@<TRIPOS>ATOM
      1 C          63.1192   85.5088   12.1485 C.3     1  UNL1        0.1232
      2 S          62.3534   86.3728   11.1910 S.3     1  UNL1       -0.1046
      3 C          62.2031   87.8653   11.1927 C.ar    1  UNL1        0.0393
      4 C          61.3479   88.3313   10.0519 C.ar    1  UNL1        0.0074
      5 C          61.0712   89.7944    9.8710 C.ar    1  UNL1        0.0006
      6 C          61.6497   90.7914   10.8308 C.ar    1  UNL1        0.0013
      7 C          62.5049   90.3254   11.9715 C.ar    1  UNL1        0.0154
      8 C          62.7816   88.8624   12.1525 C.ar    1  UNL1        0.0607
      9 N          63.6533   88.6131   13.3475 N.am    1  UNL1       -0.2431
     10 C          64.1617   87.3055   13.8780 C.2     1  UNL1        0.2718
     11 O          65.0215   87.3905   15.1041 O.2     1  UNL1       -0.2706
     12 C          63.9240   85.9239   13.3443 C.3     1  UNL1        0.2586
     13 C          62.9848   81.0869   11.3247 C.ar    1  UNL1        0.1387
     14 C          63.8300   81.9837   10.4696 C.ar    1  UNL1        0.0366
     15 C          63.8749   83.4577   10.7441 C.ar    1  UNL1       -0.0002
     16 C          63.0744   84.0348   11.8739 C.ar    1  UNL1       -0.0080
     17 C          62.2291   83.1380   12.7290 C.ar    1  UNL1       -0.0002
     18 C          62.1843   81.6640   12.4544 C.ar    1  UNL1        0.0366
     19 C          62.7736   79.1166    9.6444 C.3     1  UNL1        0.2525
     20 O          62.9399   79.6130   11.0501 O.3     1  UNL1       -0.4714
     21 C          64.0719   89.8331   14.1134 C.3     1  UNL1        0.1407
     22 C          65.1276   90.7422   13.5574 C.3     1  UNL1        0.0403
     23 N          63.4348   90.1439   15.4354 N.3     1  UNL1       -0.2552
     24 C          63.9262   91.3032   16.2506 C.3     1  UNL1        0.0909
     25 C          62.3063   89.2956   15.9420 C.3     1  UNL1        0.0909
     26 O          64.5776   84.8101   14.1074 O.3     1  UNL1       -0.4415
     27 C          63.8438   84.1387   15.2302 C.2     1  UNL1        0.3179
     28 C          62.7740   84.8798   15.9761 C.3     1  UNL1        0.1212
     29 O          64.1797   82.7262   15.6071 O.2     1  UNL1       -0.2501
@<TRIPOS>BOND
     1    19    20    1
     2    20    13    1
     3    13    14   ar
     4    14    15   ar
     5    15    16   ar
     6     1    16    1
     7     1     2    1
     8     2     3    1
     9     3     4   ar
    10     4     5   ar
    11     5     6   ar
    12     6     7   ar
    13     7     8   ar
    14     8     9    1
    15     9    21    1
    16    21    22    1
    17    21    23    1
    18    23    24    1
    19    23    25    1
    20     9    10   am
    21    10    11    2
    22    10    12    1
    23    12    26    1
    24    26    27    1
    25    27    28    1
    26    27    29    2
    27    16    17   ar
    28    17    18   ar
    29    18    13   ar
    30    12     1    1
    31     8     3   ar
@<TRIPOS>MOLECULE
*****
 29 31 0 0 0
SMALL
GASTEIGER

@<TRIPOS>ATOM
      1 C          62.5658   86.4117   10.7021 C.3     1  UNL1        0.1232
      2 S          62.7588   87.8928   10.8403 S.3     1  UNL1       -0.1046
      3 C          63.2304   88.6671   12.0353 C.ar    1  UNL1        0.0393
      4 C          63.2823   90.1386   11.7492 C.ar    1  UNL1        0.0074
      5 C          63.7293   91.0946   12.8152 C.ar    1  UNL1        0.0006
      6 C          64.1245   90.5790   14.1672 C.ar    1  UNL1        0.0013
      7 C          64.0725   89.1075   14.4533 C.ar    1  UNL1        0.0154
      8 C          63.6255   88.1515   13.3873 C.ar    1  UNL1        0.0607
      9 N          63.6466   86.7343   13.8783 N.am    1  UNL1       -0.2431
     10 C          63.2779   85.4826   13.1385 C.2     1  UNL1        0.2718
     11 O          63.4072   84.2057   13.9148 O.2     1  UNL1       -0.2706
     12 C          62.7969   85.3391   11.7249 C.3     1  UNL1        0.2586
     13 C          61.1002   84.9995    6.6887 C.ar    1  UNL1        0.1387
     14 C          60.1656   85.7135    7.6197 C.ar    1  UNL1        0.0366
     15 C          60.6541   86.1842    8.9575 C.ar    1  UNL1       -0.0002
     16 C          62.0773   85.9410    9.3643 C.ar    1  UNL1       -0.0080
     17 C          63.0119   85.2270    8.4333 C.ar    1  UNL1       -0.0002
     18 C          62.5234   84.7562    7.0955 C.ar    1  UNL1        0.0366
     19 C          61.5885   84.0215    4.3317 C.3     1  UNL1        0.2525
     20 O          60.6117   84.5288    5.3509 O.3     1  UNL1       -0.4714
     21 C          64.0959   86.5435   15.2966 C.3     1  UNL1        0.1407
     22 C          65.5229   86.1857   15.5897 C.3     1  UNL1        0.0403
     23 N          63.1183   86.7105   16.4220 N.3     1  UNL1       -0.2552
     24 C          63.0279   88.0195   17.1489 C.3     1  UNL1        0.0909
     25 C          62.2311   85.5686   16.8204 C.3     1  UNL1        0.0909
     26 O          62.5088   83.9375   11.2747 O.3     1  UNL1       -0.4415
     27 C          63.6138   82.9245   11.2224 C.2     1  UNL1        0.3179
     28 C          63.3662   81.5200   11.6871 C.3     1  UNL1        0.1212
     29 O          64.9664   83.3160   10.7053 O.2     1  UNL1       -0.2501
@<TRIPOS>BOND
     1    19    20    1
     2    20    13    1
     3    13    14   ar
     4    14    15   ar
     5    15    16   ar
     6     1    16    1
     7     1     2    1
     8     2     3    1
     9     3     4   ar
    10     4     5   ar
    11     5     6   ar
    12     6     7   ar
    13     7     8   ar
    14     8     9    1
    15     9    21    1
    16    21    22    1
    17    21    23    1
    18    23    24    1
    19    23    25    1
    20     9    10   am
    21    10    11    2
    22    10    12    1
    23    12    26    1
    24    26    27    1
    25    27    28    1
    26    27    29    2
    27    16    17   ar
    28    17    18   ar
    29    18    13   ar
    30    12     1    1
    31     8     3   ar
@<TRIPOS>MOLECULE
*****
 29 31 0 0 0
SMALL
GASTEIGER

@<TRIPOS>ATOM
      1 C          58.5408   94.7763   -1.3110 C.3     1  UNL1        0.1232
      2 S          58.9951   94.1690   -0.0169 S.3     1  UNL1       -0.1046
      3 C          60.3807   93.7640    0.3909 C.ar    1  UNL1        0.0393
      4 C          60.3991   93.1936    1.7780 C.ar    1  UNL1        0.0074
      5 C          61.6910   92.7255    2.3794 C.ar    1  UNL1        0.0006
      6 C          62.9646   92.8277    1.5935 C.ar    1  UNL1        0.0013
      7 C          62.9462   93.3981    0.2063 C.ar    1  UNL1        0.0154
      8 C          61.6542   93.8662   -0.3950 C.ar    1  UNL1        0.0607
      9 N          61.8567   94.3988   -1.7826 N.am    1  UNL1       -0.2431
     10 C          60.8358   94.9606   -2.7271 C.2     1  UNL1        0.2718
     11 O          61.3598   95.4143   -4.0573 O.2     1  UNL1       -0.2706
     12 C          59.3601   95.1286   -2.5172 C.3     1  UNL1        0.2586
     13 C          54.1386   95.6579   -1.6153 C.ar    1  UNL1        0.1387
     14 C          55.1030   96.7589   -1.2871 C.ar    1  UNL1        0.0366
     15 C          56.5705   96.4651   -1.1856 C.ar    1  UNL1       -0.0002
     16 C          57.0735   95.0702   -1.4124 C.ar    1  UNL1       -0.0080
     17 C          56.1090   93.9692   -1.7406 C.ar    1  UNL1       -0.0002
     18 C          54.6416   94.2630   -1.8421 C.ar    1  UNL1        0.0366
     19 C          52.0414   96.1717   -3.0602 C.3     1  UNL1        0.2525
     20 O          52.6712   95.9518   -1.7167 O.3     1  UNL1       -0.4714
     21 C          63.2667   94.3650   -2.2933 C.3     1  UNL1        0.1407
     22 C          63.8216   93.1014   -2.8809 C.3     1  UNL1        0.0403
     23 N          64.1220   95.5950   -2.2162 N.3     1  UNL1       -0.2552
     24 C          64.0629   96.4748   -1.0027 C.3     1  UNL1        0.0909
     25 C          65.0361   95.9452   -3.3527 C.3     1  UNL1        0.0909
     26 O          58.6035   95.7281   -3.6653 O.3     1  UNL1       -0.4415
     27 C          58.2869   94.8949   -4.8716 C.2     1  UNL1        0.3179
     28 C          58.0905   93.4145   -4.7301 C.3     1  UNL1        0.1212
     29 O          58.1665   95.5420   -6.2196 O.2     1  UNL1       -0.2501
@<TRIPOS>BOND
     1    19    20    1
     2    20    13    1
     3    13    14   ar
     4    14    15   ar
     5    15    16   ar
     6     1    16    1
     7     1     2    1
     8     2     3    1
     9     3     4   ar
    10     4     5   ar
    11     5     6   ar
    12     6     7   ar
    13     7     8   ar
    14     8     9    1
    15     9    21    1
    16    21    22    1
    17    21    23    1
    18    23    24    1
    19    23    25    1
    20     9    10   am
    21    10    11    2
    22    10    12    1
    23    12    26    1
    24    26    27    1
    25    27    28    1
    26    27    29    2
    27    16    17   ar
    28    17    18   ar
    29    18    13   ar
    30    12     1    1
    31     8     3   ar
@<TRIPOS>MOLECULE
*****
 29 31 0 0 0
SMALL
GASTEIGER

@<TRIPOS>ATOM
      1 C          72.0652   74.7098   13.0480 C.3     1  UNL1        0.1232
      2 S          71.3231   73.6141   12.3418 S.3     1  UNL1       -0.1046
      3 C          71.0258   72.2248   12.8229 C.ar    1  UNL1        0.0393
      4 C          70.2542   71.4442   11.8006 C.ar    1  UNL1        0.0074
      5 C          69.8542   70.0267   12.0845 C.ar    1  UNL1        0.0006
      6 C          70.2258   69.3898   13.3908 C.ar    1  UNL1        0.0013
      7 C          70.9974   70.1705   14.4131 C.ar    1  UNL1        0.0154
      8 C          71.3974   71.5880   14.1292 C.ar    1  UNL1        0.0607
      9 N          72.1580   72.1832   15.2769 N.am    1  UNL1       -0.2431
     10 C          72.7348   73.5622   15.4019 C.2     1  UNL1        0.2718
     11 O          73.4471   73.8556   16.6890 O.2     1  UNL1       -0.2706
     12 C          72.6935   74.6866   14.4099 C.3     1  UNL1        0.2586
     13 C          72.4590   78.5773   10.7815 C.ar    1  UNL1        0.1387
     14 C          73.6281   77.6426   10.8788 C.ar    1  UNL1        0.0366
     15 C          73.4969   76.3534   11.6343 C.ar    1  UNL1       -0.0002
     16 C          72.1965   75.9989   12.2925 C.ar    1  UNL1       -0.0080
     17 C          71.0273   76.9336   12.1953 C.ar    1  UNL1       -0.0002
     18 C          71.1585   78.2228   11.4398 C.ar    1  UNL1        0.0366
     19 C          72.5274   81.1744   10.7578 C.3     1  UNL1        0.2525
     20 O          72.5902   79.8664   10.0261 O.3     1  UNL1       -0.4714
     21 C          72.3697   71.2799   16.4556 C.3     1  UNL1        0.1407
     22 C          73.6282   70.4709   16.5641 C.3     1  UNL1        0.0403
     23 N          71.3229   71.1856   17.5258 N.3     1  UNL1       -0.2552
     24 C          70.8580   69.8420   18.0039 C.3     1  UNL1        0.0909
     25 C          70.7411   72.4349   18.1180 C.3     1  UNL1        0.0909
     26 O          73.3700   75.9557   14.8362 O.3     1  UNL1       -0.4415
     27 C          72.5490   77.1534   15.2125 C.2     1  UNL1        0.3179
     28 C          73.2083   78.4890   15.3896 C.3     1  UNL1        0.1212
     29 O          71.0686   77.0154   15.4118 O.2     1  UNL1       -0.2501
@<TRIPOS>BOND
     1    19    20    1
     2    20    13    1
     3    13    14   ar
     4    14    15   ar
     5    15    16   ar
     6     1    16    1
     7     1     2    1
     8     2     3    1
     9     3     4   ar
    10     4     5   ar
    11     5     6   ar
    12     6     7   ar
    13     7     8   ar
    14     8     9    1
    15     9    21    1
    16    21    22    1
    17    21    23    1
    18    23    24    1
    19    23    25    1
    20     9    10   am
    21    10    11    2
    22    10    12    1
    23    12    26    1
    24    26    27    1
    25    27    28    1
    26    27    29    2
    27    16    17   ar
    28    17    18   ar
    29    18    13   ar
    30    12     1    1
    31     8     3   ar
@<TRIPOS>MOLECULE
*****
 29 31 0 0 0
SMALL
GASTEIGER

@<TRIPOS>ATOM
      1 C          61.6167   87.7123   10.5282 C.3     1  UNL1        0.1232
      2 S          62.1881   88.7562   11.4414 S.3     1  UNL1       -0.1046
      3 C          63.0138   88.5655   12.6790 C.ar    1  UNL1        0.0393
      4 C          63.3828   89.8803   13.2996 C.ar    1  UNL1        0.0074
      5 C          64.2101   89.9134   14.5504 C.ar    1  UNL1        0.0006
      6 C          64.6684   88.6317   15.1806 C.ar    1  UNL1        0.0013
      7 C          64.2994   87.3169   14.5601 C.ar    1  UNL1        0.0154
      8 C          63.4721   87.2838   13.3093 C.ar    1  UNL1        0.0607
      9 N          63.2178   85.8763   12.8575 N.am    1  UNL1       -0.2431
     10 C          62.4425   85.4027   11.6639 C.2     1  UNL1        0.2718
     11 O          62.3702   83.9154   11.4830 O.2     1  UNL1       -0.2706
     12 C          61.7299   86.2199   10.6273 C.3     1  UNL1        0.2586
     13 C          59.2499   89.2629    7.0291 C.ar    1  UNL1        0.1387
     14 C          60.3179   90.1147    7.6487 C.ar    1  UNL1        0.0366
     15 C          61.1069   89.5979    8.8151 C.ar    1  UNL1       -0.0002
     16 C          60.8278   88.2292    9.3619 C.ar    1  UNL1       -0.0080
     17 C          59.7598   87.3774    8.7423 C.ar    1  UNL1       -0.0002
     18 C          58.9708   87.8942    7.5759 C.ar    1  UNL1        0.0366
     19 C          58.6570   91.1900    5.3905 C.3     1  UNL1        0.2525
     20 O          58.4610   89.7798    5.8628 O.3     1  UNL1       -0.4714
     21 C          63.8183   84.7999   13.7123 C.3     1  UNL1        0.1407
     22 C          65.2687   84.4467   13.5650 C.3     1  UNL1        0.0403
     23 N          62.9684   84.0765   14.7146 N.3     1  UNL1       -0.2552
     24 C          62.6120   82.6360   14.4953 C.3     1  UNL1        0.0909
     25 C          62.4748   84.7936   15.9361 C.3     1  UNL1        0.0909
     26 O          61.0392   85.4416    9.5469 O.3     1  UNL1       -0.4415
     27 C          61.7355   85.1889    8.2426 C.2     1  UNL1        0.3179
     28 C          63.2342   85.1867    8.1805 C.3     1  UNL1        0.1212
     29 O          60.9331   84.9383    7.0002 O.2     1  UNL1       -0.2501
@<TRIPOS>BOND
     1    19    20    1
     2    20    13    1
     3    13    14   ar
     4    14    15   ar
     5    15    16   ar
     6     1    16    1
     7     1     2    1
     8     2     3    1
     9     3     4   ar
    10     4     5   ar
    11     5     6   ar
    12     6     7   ar
    13     7     8   ar
    14     8     9    1
    15     9    21    1
    16    21    22    1
    17    21    23    1
    18    23    24    1
    19    23    25    1
    20     9    10   am
    21    10    11    2
    22    10    12    1
    23    12    26    1
    24    26    27    1
    25    27    28    1
    26    27    29    2
    27    16    17   ar
    28    17    18   ar
    29    18    13   ar
    30    12     1    1
    31     8     3   ar
@<TRIPOS>MOLECULE
*****
 29 31 0 0 0
SMALL
GASTEIGER

@<TRIPOS>ATOM
      1 C          63.1385   85.8915   12.3066 C.3     1  UNL1        0.1232
      2 S          62.3862   86.6587   11.2599 S.3     1  UNL1       -0.1046
      3 C          62.2280   88.1440   11.1218 C.ar    1  UNL1        0.0393
      4 C          61.3919   88.4974    9.9277 C.ar    1  UNL1        0.0074
      5 C          61.1109   89.9357    9.6081 C.ar    1  UNL1        0.0006
      6 C          61.6660   91.0206   10.4825 C.ar    1  UNL1        0.0013
      7 C          62.5021   90.6672   11.6767 C.ar    1  UNL1        0.0154
      8 C          62.7831   89.2289   11.9963 C.ar    1  UNL1        0.0607
      9 N          63.6335   89.0965   13.2249 N.am    1  UNL1       -0.2431
     10 C          64.1388   87.8466   13.8824 C.2     1  UNL1        0.2718
     11 O          64.9749   88.0498   15.1110 O.2     1  UNL1       -0.2706
     12 C          63.9185   86.4202   13.4737 C.3     1  UNL1        0.2586
     13 C          63.0428   81.4119   11.8902 C.ar    1  UNL1        0.1387
     14 C          62.0507   82.1040   12.7771 C.ar    1  UNL1        0.0366
     15 C          62.0825   83.5973   12.9160 C.ar    1  UNL1       -0.0002
     16 C          63.1066   84.3984   12.1678 C.ar    1  UNL1       -0.0080
     17 C          64.0987   83.7062   11.2809 C.ar    1  UNL1       -0.0002
     18 C          64.0668   82.2130   11.1421 C.ar    1  UNL1        0.0366
     19 C          62.4666   79.0734   12.8647 C.3     1  UNL1        0.2525
     20 O          63.0109   79.9187   11.7515 O.3     1  UNL1       -0.4714
     21 C          64.0312   90.3844   13.8830 C.3     1  UNL1        0.1407
     22 C          63.2515   90.8991   15.0566 C.3     1  UNL1        0.0403
     23 N          65.2086   91.1578   13.3674 N.3     1  UNL1       -0.2552
     24 C          66.5055   91.1402   14.1209 C.3     1  UNL1        0.0909
     25 C          65.0890   91.9487   12.0986 C.3     1  UNL1        0.0909
     26 O          64.5634   85.3857   14.3477 O.3     1  UNL1       -0.4415
     27 C          63.8589   84.8997   15.5795 C.2     1  UNL1        0.3179
     28 C          63.5367   83.4428   15.7336 C.3     1  UNL1        0.1212
     29 O          63.4765   85.8705   16.6572 O.2     1  UNL1       -0.2501
@<TRIPOS>BOND
     1    19    20    1
     2    20    13    1
     3    13    14   ar
     4    14    15   ar
     5    15    16   ar
     6     1    16    1
     7     1     2    1
     8     2     3    1
     9     3     4   ar
    10     4     5   ar
    11     5     6   ar
    12     6     7   ar
    13     7     8   ar
    14     8     9    1
    15     9    21    1
    16    21    22    1
    17    21    23    1
    18    23    24    1
    19    23    25    1
    20     9    10   am
    21    10    11    2
    22    10    12    1
    23    12    26    1
    24    26    27    1
    25    27    28    1
    26    27    29    2
    27    16    17   ar
    28    17    18   ar
    29    18    13   ar
    30    12     1    1
    31     8     3   ar
@<TRIPOS>MOLECULE
*****
 29 31 0 0 0
SMALL
GASTEIGER

@<TRIPOS>ATOM
      1 C          60.8753   94.5488   -1.5693 C.3     1  UNL1        0.1232
      2 S          59.7081   93.6829   -1.1982 S.3     1  UNL1       -0.1046
      3 C          58.5241   93.2996   -2.0356 C.ar    1  UNL1        0.0393
      4 C          57.5808   92.4130   -1.2779 C.ar    1  UNL1        0.0074
      5 C          56.3283   91.9145   -1.9357 C.ar    1  UNL1        0.0006
      6 C          56.0192   92.3026   -3.3513 C.ar    1  UNL1        0.0013
      7 C          56.9625   93.1891   -4.1090 C.ar    1  UNL1        0.0154
      8 C          58.2149   93.6876   -3.4512 C.ar    1  UNL1        0.0607
      9 N          59.0134   94.5548   -4.3789 N.am    1  UNL1       -0.2431
     10 C          60.3181   95.2481   -4.1202 C.2     1  UNL1        0.2718
     11 O          60.8668   96.0500   -5.2628 O.2     1  UNL1       -0.2706
     12 C          61.1467   95.2454   -2.8698 C.3     1  UNL1        0.2586
     13 C          63.9717   95.1344    1.6430 C.ar    1  UNL1        0.1387
     14 C          64.0065   93.9061    0.7827 C.ar    1  UNL1        0.0366
     15 C          62.9744   93.7109   -0.2881 C.ar    1  UNL1       -0.0002
     16 C          61.9074   94.7440   -0.4986 C.ar    1  UNL1       -0.0080
     17 C          61.8725   95.9723    0.3617 C.ar    1  UNL1       -0.0002
     18 C          62.9047   96.1676    1.4325 C.ar    1  UNL1        0.0366
     19 C          65.3848   96.7150    3.1446 C.3     1  UNL1        0.2525
     20 O          65.0038   95.3296    2.7137 O.3     1  UNL1       -0.4714
     21 C          58.4298   94.7551   -5.7461 C.3     1  UNL1        0.1407
     22 C          58.7892   93.8168   -6.8599 C.3     1  UNL1        0.0403
     23 N          57.4869   95.8938   -5.9996 N.3     1  UNL1       -0.2552
     24 C          56.8723   96.0708   -7.3565 C.3     1  UNL1        0.0909
     25 C          57.1586   96.8555   -4.8964 C.3     1  UNL1        0.0909
     26 O          62.4145   96.0451   -2.9274 O.3     1  UNL1       -0.4415
     27 C          63.6929   95.3936   -3.3646 C.2     1  UNL1        0.3179
     28 C          64.9893   95.7731   -2.7124 C.3     1  UNL1        0.1212
     29 O          63.6750   94.3626   -4.4541 O.2     1  UNL1       -0.2501
@<TRIPOS>BOND
     1    19    20    1
     2    20    13    1
     3    13    14   ar
     4    14    15   ar
     5    15    16   ar
     6     1    16    1
     7     1     2    1
     8     2     3    1
     9     3     4   ar
    10     4     5   ar
    11     5     6   ar
    12     6     7   ar
    13     7     8   ar
    14     8     9    1
    15     9    21    1
    16    21    22    1
    17    21    23    1
    18    23    24    1
    19    23    25    1
    20     9    10   am
    21    10    11    2
    22    10    12    1
    23    12    26    1
    24    26    27    1
    25    27    28    1
    26    27    29    2
    27    16    17   ar
    28    17    18   ar
    29    18    13   ar
    30    12     1    1
    31     8     3   ar
@<TRIPOS>MOLECULE
*****
 29 31 0 0 0
SMALL
GASTEIGER

@<TRIPOS>ATOM
      1 C          60.7435   94.2648   -1.7205 C.3     1  UNL1        0.1232
      2 S          61.9224   93.5218   -2.2755 S.3     1  UNL1       -0.1046
      3 C          62.4528   93.5232   -3.6787 C.ar    1  UNL1        0.0393
      4 C          63.6565   92.6380   -3.8104 C.ar    1  UNL1        0.0074
      5 C          64.3426   92.4976   -5.1368 C.ar    1  UNL1        0.0006
      6 C          63.8250   93.2423   -6.3316 C.ar    1  UNL1        0.0013
      7 C          62.6212   94.1275   -6.1998 C.ar    1  UNL1        0.0154
      8 C          61.9351   94.2679   -4.8734 C.ar    1  UNL1        0.0607
      9 N          60.7592   95.1952   -4.9600 N.am    1  UNL1       -0.2431
     10 C          59.8106   95.6068   -3.8734 C.2     1  UNL1        0.2718
     11 O          58.7256   96.5583   -4.2826 O.2     1  UNL1       -0.2706
     12 C          59.8036   95.1927   -2.4317 C.3     1  UNL1        0.2586
     13 C          59.9168   93.6257    2.6564 C.ar    1  UNL1        0.1387
     14 C          60.6417   94.8578    2.2022 C.ar    1  UNL1        0.0366
     15 C          60.9173   95.0709    0.7432 C.ar    1  UNL1       -0.0002
     16 C          60.4679   94.0518   -0.2616 C.ar    1  UNL1       -0.0080
     17 C          59.7430   92.8197    0.1926 C.ar    1  UNL1       -0.0002
     18 C          59.4674   92.6065    1.6516 C.ar    1  UNL1        0.0366
     19 C          59.1766   92.0723    4.6031 C.3     1  UNL1        0.2525
     20 O          59.6412   93.4126    4.1154 O.3     1  UNL1       -0.4714
     21 C          60.4974   95.7895   -6.3122 C.3     1  UNL1        0.1407
     22 C          61.4078   96.8516   -6.8538 C.3     1  UNL1        0.0403
     23 N          59.3250   95.3218   -7.1227 N.3     1  UNL1       -0.2552
     24 C          59.2021   93.8746   -7.4977 C.3     1  UNL1        0.0909
     25 C          58.2758   96.3011   -7.5583 C.3     1  UNL1        0.0909
     26 O          58.7125   95.7849   -1.5898 O.3     1  UNL1       -0.4415
     27 C          57.3273   95.2122   -1.6460 C.2     1  UNL1        0.3179
     28 C          57.1165   93.8042   -2.1183 C.3     1  UNL1        0.1212
     29 O          56.1529   96.0475   -1.2299 O.2     1  UNL1       -0.2501
@<TRIPOS>BOND
     1    19    20    1
     2    20    13    1
     3    13    14   ar
     4    14    15   ar
     5    15    16   ar
     6     1    16    1
     7     1     2    1
     8     2     3    1
     9     3     4   ar
    10     4     5   ar
    11     5     6   ar
    12     6     7   ar
    13     7     8   ar
    14     8     9    1
    15     9    21    1
    16    21    22    1
    17    21    23    1
    18    23    24    1
    19    23    25    1
    20     9    10   am
    21    10    11    2
    22    10    12    1
    23    12    26    1
    24    26    27    1
    25    27    28    1
    26    27    29    2
    27    16    17   ar
    28    17    18   ar
    29    18    13   ar
    30    12     1    1
    31     8     3   ar
