@<TRIPOS>MOLECULE
*****
 37 40 0 0 0
SMALL
GASTEIGER

@<TRIPOS>ATOM
      1 C          62.5351   86.7360   11.9731 C.ar    1  UNL1        0.2490
      2 N          61.6577   86.1469   10.9087 N.ar    1  UNL1       -0.1863
      3 C          60.9730   87.0434    9.9200 C.ar    1  UNL1        0.2225
      4 N          61.1657   88.5290    9.9957 N.ar    1  UNL1       -0.1420
      5 N          62.0431   89.1181   11.0602 N.ar    1  UNL1       -0.2193
      6 C          62.4191   90.5344   11.3808 C.ar    1  UNL1        0.1371
      7 C          63.3362   90.5133   12.5676 C.ar    1  UNL1        0.1554
      8 C          63.5269   89.0839   12.9805 C.ar    1  UNL1        0.0359
      9 C          64.3690   88.6014   14.1242 C.3     1  UNL1        0.0360
     10 C          62.7278   88.2216   12.0489 C.ar    1  UNL1        0.1353
     11 O          63.2198   85.8395   12.9618 O.3     1  UNL1       -0.4328
     12 C          62.8585   78.4661   10.2926 C.3     1  UNL1        0.0521
     13 C          62.8303   79.7613   11.0487 C.2     1  UNL1        0.0591
     14 C          63.2230   81.1052   10.5104 C.2     1  UNL1        0.0182
     15 C          63.0400   82.1145   11.6048 C.2     1  UNL1        0.0455
     16 C          63.2685   83.5962   11.6522 C.2     1  UNL1        0.1752
     17 F          63.7743   84.3163   10.4375 F       1  UNL1       -0.2009
     18 C          62.9912   84.3578   12.9144 C.2     1  UNL1        0.1706
     19 C          62.4854   83.6377   14.1292 C.2     1  UNL1        0.0201
     20 C          62.2569   82.1560   14.0817 C.3     1  UNL1        0.0751
     21 C          62.5342   81.3944   12.8196 C.2     1  UNL1        0.0653
     22 N          62.4046   79.9400   12.4758 N.2     1  UNL1       -0.2536
     23 O          63.9540   91.7111   13.2260 O.3     1  UNL1       -0.4703
     24 C          65.1942   91.5550   14.0551 C.3     1  UNL1        0.2486
     25 C          66.3499   92.4909   13.8595 C.3     1  UNL1        0.2123
     26 C          67.7546   91.9956   14.0378 C.3     1  UNL1        0.0514
     27 O          66.1011   93.9221   13.4857 O.3     1  UNL1       -0.4475
     28 C          66.1156   94.3339   12.0434 C.2     1  UNL1        0.3311
     29 O          66.2199   95.7852   11.6789 O.2     1  UNL1       -0.2486
     30 C          66.0258   93.2946   10.9657 C.3     1  UNL1        0.1512
     31 N          64.6977   92.9628   10.3524 N.3     1  UNL1       -0.3134
     32 H          64.8218   92.2409    9.6426 H       1  UNL1        0.1193
     33 H          64.3037   93.7992    9.9216 H       1  UNL1        0.1193
     34 C          67.2641   92.5869   10.5012 C.3     1  UNL1        0.0269
     35 C          67.9756   93.0532    9.2656 C.3     1  UNL1        0.0019
     36 C          67.6894   94.4143    8.7039 C.3     1  UNL1        0.0001
     37 C          68.9733   92.1584    8.5919 C.3     1  UNL1        0.0001
@<TRIPOS>BOND
     1    12    13    1
     2    13    14    2
     3    14    15    1
     4    15    16    2
     5    16    17    1
     6    16    18    1
     7    18    11    1
     8    11     1    1
     9     1     2   ar
    10     2     3   ar
    11     3     4   ar
    12     4     5   ar
    13     5     6   ar
    14     6     7   ar
    15     7    23    1
    16    23    24    1
    17    24    25    1
    18    25    26    1
    19    25    27    1
    20    27    28    1
    21    28    29    2
    22    28    30    1
    23    30    31    1
    24    30    34    1
    25    34    35    1
    26    35    36    1
    27    35    37    1
    28     7     8   ar
    29     8     9    1
    30     8    10   ar
    31    18    19    2
    32    19    20    1
    33    20    21    1
    34    21    22    2
    35    22    13    1
    36    21    15    1
    37    10     1   ar
    38    10     5   ar
    39    31    32    1
    40    31    33    1
@<TRIPOS>MOLECULE
*****
 37 40 0 0 0
SMALL
GASTEIGER

@<TRIPOS>ATOM
      1 C          61.1774   89.2122   10.9113 C.ar    1  UNL1        0.2490
      2 N          60.2961   90.0955   10.0789 N.ar    1  UNL1       -0.1863
      3 C          59.7869   89.6120    8.7534 C.ar    1  UNL1        0.2225
      4 N          60.1590   88.2451    8.2604 N.ar    1  UNL1       -0.1420
      5 N          61.0403   87.3618    9.0928 N.ar    1  UNL1       -0.2193
      6 C          61.5712   85.9767    8.8696 C.ar    1  UNL1        0.1371
      7 C          62.4085   85.6042   10.0571 C.ar    1  UNL1        0.1554
      8 C          62.3950   86.7591   11.0143 C.ar    1  UNL1        0.0359
      9 C          63.1029   86.8175   12.3354 C.3     1  UNL1        0.0360
     10 C          61.5495   87.8453   10.4183 C.ar    1  UNL1        0.1353
     11 O          61.6866   89.6958   12.2368 O.3     1  UNL1       -0.4328
     12 C          68.3441   92.7820   15.0253 C.3     1  UNL1        0.0521
     13 C          67.1424   92.3300   14.2496 C.2     1  UNL1        0.0591
     14 C          66.0440   91.4460   14.7614 C.2     1  UNL1        0.0182
     15 C          65.0509   91.2523   13.6540 C.2     1  UNL1        0.0455
     16 C          63.7680   90.4787   13.5804 C.2     1  UNL1        0.1752
     17 F          63.2833   89.7143   14.7766 F       1  UNL1       -0.2009
     18 C          62.9696   90.4694   12.3105 C.2     1  UNL1        0.1706
     19 C          63.4542   91.2337   11.1143 C.2     1  UNL1        0.0201
     20 C          64.7373   92.0074   11.1880 C.3     1  UNL1        0.0751
     21 C          65.5356   92.0166   12.4578 C.2     1  UNL1        0.0653
     22 N          66.8282   92.6827   12.8259 N.2     1  UNL1       -0.2536
     23 O          63.1321   84.3050   10.2531 O.3     1  UNL1       -0.4703
     24 C          63.0910   83.6172   11.5854 C.3     1  UNL1        0.2486
     25 C          63.2708   82.1303   11.6677 C.3     1  UNL1        0.2123
     26 C          63.3418   81.3128   10.4120 C.3     1  UNL1        0.0514
     27 O          63.3795   81.4609   13.0056 O.3     1  UNL1       -0.4475
     28 C          62.6098   81.9958   14.1767 C.2     1  UNL1        0.3311
     29 O          61.2351   81.4736   14.4723 O.2     1  UNL1       -0.2486
     30 C          63.2148   83.0529   15.0522 C.3     1  UNL1        0.1512
     31 N          64.5533   82.8234   15.6893 N.3     1  UNL1       -0.3134
     32 H          64.8091   83.6389   16.2460 H       1  UNL1        0.1193
     33 H          65.2541   82.6738   14.9635 H       1  UNL1        0.1193
     34 C          62.4813   84.3394   15.2906 C.3     1  UNL1        0.0269
     35 C          63.1604   85.4680   16.0084 C.3     1  UNL1        0.0019
     36 C          64.3912   86.0958   15.4242 C.3     1  UNL1        0.0001
     37 C          62.6089   85.9688   17.3103 C.3     1  UNL1        0.0001
@<TRIPOS>BOND
     1    12    13    1
     2    13    14    2
     3    14    15    1
     4    15    16    2
     5    16    17    1
     6    16    18    1
     7    18    11    1
     8    11     1    1
     9     1     2   ar
    10     2     3   ar
    11     3     4   ar
    12     4     5   ar
    13     5     6   ar
    14     6     7   ar
    15     7    23    1
    16    23    24    1
    17    24    25    1
    18    25    26    1
    19    25    27    1
    20    27    28    1
    21    28    29    2
    22    28    30    1
    23    30    31    1
    24    30    34    1
    25    34    35    1
    26    35    36    1
    27    35    37    1
    28     7     8   ar
    29     8     9    1
    30     8    10   ar
    31    18    19    2
    32    19    20    1
    33    20    21    1
    34    21    22    2
    35    22    13    1
    36    21    15    1
    37    10     1   ar
    38    10     5   ar
    39    31    32    1
    40    31    33    1
@<TRIPOS>MOLECULE
*****
 37 40 0 0 0
SMALL
GASTEIGER

@<TRIPOS>ATOM
      1 C          61.6516   89.3127   11.7549 C.ar    1  UNL1        0.2490
      2 N          60.9099   90.4713   11.1570 N.ar    1  UNL1       -0.1863
      3 C          60.1266   90.2875    9.8910 C.ar    1  UNL1        0.2225
      4 N          60.0850   88.9452    9.2230 N.ar    1  UNL1       -0.1420
      5 N          60.8267   87.7866    9.8209 N.ar    1  UNL1       -0.2193
      6 C          60.9692   86.3565    9.3912 C.ar    1  UNL1        0.1371
      7 C          61.8405   85.6565   10.3915 C.ar    1  UNL1        0.1554
      8 C          62.2365   86.6539   11.4395 C.ar    1  UNL1        0.0359
      9 C          63.1064   86.3825   12.6310 C.3     1  UNL1        0.0360
     10 C          61.6100   87.9704   11.0868 C.ar    1  UNL1        0.1353
     11 O          62.4349   89.4965   13.0209 O.3     1  UNL1       -0.4328
     12 C          68.4911   93.7263   15.6769 C.3     1  UNL1        0.0521
     13 C          67.3876   93.0497   14.9190 C.2     1  UNL1        0.0591
     14 C          66.4254   92.0420   15.4745 C.2     1  UNL1        0.0182
     15 C          65.4956   91.6315   14.3713 C.2     1  UNL1        0.0455
     16 C          64.3462   90.6685   14.3337 C.2     1  UNL1        0.1752
     17 F          63.9586   89.9145   15.5711 F       1  UNL1       -0.2009
     18 C          63.5843   90.4595   13.0585 C.2     1  UNL1        0.1706
     19 C          63.9719   91.2135   11.8211 C.2     1  UNL1        0.0201
     20 C          65.1214   92.1765   11.8588 C.3     1  UNL1        0.0751
     21 C          65.8832   92.3855   13.1339 C.2     1  UNL1        0.0653
     22 N          67.0525   93.2620   13.4724 N.2     1  UNL1       -0.2536
     23 O          62.2447   84.2126   10.3510 O.3     1  UNL1       -0.4703
     24 C          63.6605   83.8213   10.6549 C.3     1  UNL1        0.2486
     25 C          63.9604   82.4588   11.2059 C.3     1  UNL1        0.2123
     26 C          63.5373   81.2342   10.4497 C.3     1  UNL1        0.0514
     27 O          64.6832   82.3207   12.5129 O.3     1  UNL1       -0.4475
     28 C          64.2678   83.1509   13.6911 C.2     1  UNL1        0.3311
     29 O          65.2115   84.1671   14.2626 O.2     1  UNL1       -0.2486
     30 C          62.9086   82.9650   14.2977 C.3     1  UNL1        0.1512
     31 N          62.6327   83.4612   15.6862 N.3     1  UNL1       -0.3134
     32 H          61.6661   83.2523   15.9360 H       1  UNL1        0.1193
     33 H          62.7832   84.4694   15.7231 H       1  UNL1        0.1193
     34 C          61.8253   82.2828   13.5160 C.3     1  UNL1        0.0269
     35 C          61.4940   80.8457   13.7900 C.3     1  UNL1        0.0019
     36 C          62.5493   79.7906   13.6380 C.3     1  UNL1        0.0001
     37 C          60.1074   80.4638   14.2159 C.3     1  UNL1        0.0001
@<TRIPOS>BOND
     1    12    13    1
     2    13    14    2
     3    14    15    1
     4    15    16    2
     5    16    17    1
     6    16    18    1
     7    18    11    1
     8    11     1    1
     9     1     2   ar
    10     2     3   ar
    11     3     4   ar
    12     4     5   ar
    13     5     6   ar
    14     6     7   ar
    15     7    23    1
    16    23    24    1
    17    24    25    1
    18    25    26    1
    19    25    27    1
    20    27    28    1
    21    28    29    2
    22    28    30    1
    23    30    31    1
    24    30    34    1
    25    34    35    1
    26    35    36    1
    27    35    37    1
    28     7     8   ar
    29     8     9    1
    30     8    10   ar
    31    18    19    2
    32    19    20    1
    33    20    21    1
    34    21    22    2
    35    22    13    1
    36    21    15    1
    37    10     1   ar
    38    10     5   ar
    39    31    32    1
    40    31    33    1
@<TRIPOS>MOLECULE
*****
 37 40 0 0 0
SMALL
GASTEIGER

@<TRIPOS>ATOM
      1 C          61.6970   87.9245   11.3093 C.ar    1  UNL1        0.2490
      2 N          62.4632   86.6912   11.6858 N.ar    1  UNL1       -0.1863
      3 C          62.5122   85.5228   10.7465 C.ar    1  UNL1        0.2225
      4 N          61.7950   85.5876    9.4307 N.ar    1  UNL1       -0.1420
      5 N          61.0287   86.8209    9.0543 N.ar    1  UNL1       -0.2193
      6 C          60.2292   87.1726    7.8348 C.ar    1  UNL1        0.1371
      7 C          59.6861   88.5584    8.0204 C.ar    1  UNL1        0.1554
      8 C          60.1499   89.0632    9.3546 C.ar    1  UNL1        0.0359
      9 C          59.8386   90.4061    9.9460 C.3     1  UNL1        0.0360
     10 C          60.9797   87.9893    9.9935 C.ar    1  UNL1        0.1353
     11 O          61.6480   89.0930   12.2486 O.3     1  UNL1       -0.4328
     12 C          67.6542   93.3122   15.0319 C.3     1  UNL1        0.0521
     13 C          66.5656   92.6376   14.2509 C.2     1  UNL1        0.0591
     14 C          65.5906   91.6311   14.7859 C.2     1  UNL1        0.0182
     15 C          64.6833   91.2225   13.6634 C.2     1  UNL1        0.0455
     16 C          63.5334   90.2614   13.6014 C.2     1  UNL1        0.1752
     17 F          63.1191   89.5073   14.8301 F       1  UNL1       -0.2009
     18 C          62.7978   90.0542   12.3106 C.2     1  UNL1        0.1706
     19 C          63.2122   90.8082   11.0819 C.2     1  UNL1        0.0201
     20 C          64.3621   91.7694   11.1439 C.3     1  UNL1        0.0751
     21 C          65.0976   91.9766   12.4347 C.2     1  UNL1        0.0653
     22 N          66.2610   92.8511   12.7978 N.2     1  UNL1       -0.2536
     23 O          58.8295   89.3079    7.0433 O.3     1  UNL1       -0.4703
     24 C          59.4668   90.0951    5.9370 C.3     1  UNL1        0.2486
     25 C          58.7094   91.2083    5.2759 C.3     1  UNL1        0.2123
     26 C          57.2270   91.0928    5.0781 C.3     1  UNL1        0.0514
     27 O          59.4344   92.4370    4.8126 O.3     1  UNL1       -0.4475
     28 C          60.5154   92.3249    3.7787 C.2     1  UNL1        0.3311
     29 O          61.7818   91.5859    4.0949 O.2     1  UNL1       -0.2486
     30 C          60.3301   92.9519    2.4288 C.3     1  UNL1        0.1512
     31 N          59.1237   92.6138    1.6040 N.3     1  UNL1       -0.3134
     32 H          59.1596   93.1265    0.7229 H       1  UNL1        0.1193
     33 H          58.2794   92.8732    2.1141 H       1  UNL1        0.1193
     34 C          61.3512   93.9171    1.9035 C.3     1  UNL1        0.0269
     35 C          62.4584   93.4290    1.0169 C.3     1  UNL1        0.0019
     36 C          62.2571   93.3650   -0.4681 C.3     1  UNL1        0.0001
     37 C          63.7667   93.0048    1.6154 C.3     1  UNL1        0.0001
@<TRIPOS>BOND
     1    12    13    1
     2    13    14    2
     3    14    15    1
     4    15    16    2
     5    16    17    1
     6    16    18    1
     7    18    11    1
     8    11     1    1
     9     1     2   ar
    10     2     3   ar
    11     3     4   ar
    12     4     5   ar
    13     5     6   ar
    14     6     7   ar
    15     7    23    1
    16    23    24    1
    17    24    25    1
    18    25    26    1
    19    25    27    1
    20    27    28    1
    21    28    29    2
    22    28    30    1
    23    30    31    1
    24    30    34    1
    25    34    35    1
    26    35    36    1
    27    35    37    1
    28     7     8   ar
    29     8     9    1
    30     8    10   ar
    31    18    19    2
    32    19    20    1
    33    20    21    1
    34    21    22    2
    35    22    13    1
    36    21    15    1
    37    10     1   ar
    38    10     5   ar
    39    31    32    1
    40    31    33    1
@<TRIPOS>MOLECULE
*****
 37 40 0 0 0
SMALL
GASTEIGER

@<TRIPOS>ATOM
      1 C          63.5733   86.8495   14.5385 C.ar    1  UNL1        0.2490
      2 N          63.1781   85.5307   15.1339 N.ar    1  UNL1       -0.1863
      3 C          62.7335   85.4568   16.5645 C.ar    1  UNL1        0.2225
      4 N          62.6840   86.7017   17.3998 N.ar    1  UNL1       -0.1420
      5 N          63.0791   88.0205   16.8044 N.ar    1  UNL1       -0.2193
      6 C          63.1315   89.4054   17.3782 C.ar    1  UNL1        0.1371
      7 C          63.6085   90.3353   16.3022 C.ar    1  UNL1        0.1554
      8 C          63.8509   89.5250   15.0634 C.ar    1  UNL1        0.0359
      9 C          64.3355   90.0527   13.7455 C.3     1  UNL1        0.0360
     10 C          63.5238   88.0944   15.3738 C.ar    1  UNL1        0.1353
     11 O          64.0179   86.9235   13.1078 O.3     1  UNL1       -0.4328
     12 C          59.0888   88.6395    7.2441 C.3     1  UNL1        0.0521
     13 C          59.9488   88.0397    8.3168 C.2     1  UNL1        0.0591
     14 C          60.8679   88.7915    9.2333 C.2     1  UNL1        0.0182
     15 C          61.5279   87.7992   10.1442 C.2     1  UNL1        0.0455
     16 C          62.5283   87.9624   11.2499 C.2     1  UNL1        0.1752
     17 F          63.0394   89.3276   11.6034 F       1  UNL1       -0.2009
     18 C          63.0175   86.7603   12.0021 C.2     1  UNL1        0.1706
     19 C          62.5063   85.3951   11.6486 C.2     1  UNL1        0.0201
     20 C          61.5059   85.2320   10.5428 C.3     1  UNL1        0.0751
     21 C          61.0167   86.4341    9.7907 C.2     1  UNL1        0.0653
     22 N          60.0408   86.5827    8.6613 N.2     1  UNL1       -0.2536
     23 O          63.8081   91.8155   16.4407 O.3     1  UNL1       -0.4703
     24 C          65.1753   92.3650   16.7211 C.3     1  UNL1        0.2486
     25 C          66.0697   92.7663   15.5858 C.3     1  UNL1        0.2123
     26 C          67.5071   93.1063   15.8474 C.3     1  UNL1        0.0514
     27 O          65.5267   92.8277   14.1889 O.3     1  UNL1       -0.4475
     28 C          66.3456   93.4415   13.0922 C.2     1  UNL1        0.3311
     29 O          66.3582   94.9302   12.9090 O.2     1  UNL1       -0.2486
     30 C          67.1518   92.5666   12.1787 C.3     1  UNL1        0.1512
     31 N          68.3192   91.7939   12.7174 N.3     1  UNL1       -0.3134
     32 H          68.7486   91.2571   11.9639 H       1  UNL1        0.1193
     33 H          67.9983   91.1582   13.4477 H       1  UNL1        0.1193
     34 C          66.7907   92.4643   10.7264 C.3     1  UNL1        0.0269
     35 C          67.6446   93.1361    9.6921 C.3     1  UNL1        0.0019
     36 C          68.6675   92.3432    8.9339 C.3     1  UNL1        0.0001
     37 C          67.4756   94.6007    9.4161 C.3     1  UNL1        0.0001
@<TRIPOS>BOND
     1    12    13    1
     2    13    14    2
     3    14    15    1
     4    15    16    2
     5    16    17    1
     6    16    18    1
     7    18    11    1
     8    11     1    1
     9     1     2   ar
    10     2     3   ar
    11     3     4   ar
    12     4     5   ar
    13     5     6   ar
    14     6     7   ar
    15     7    23    1
    16    23    24    1
    17    24    25    1
    18    25    26    1
    19    25    27    1
    20    27    28    1
    21    28    29    2
    22    28    30    1
    23    30    31    1
    24    30    34    1
    25    34    35    1
    26    35    36    1
    27    35    37    1
    28     7     8   ar
    29     8     9    1
    30     8    10   ar
    31    18    19    2
    32    19    20    1
    33    20    21    1
    34    21    22    2
    35    22    13    1
    36    21    15    1
    37    10     1   ar
    38    10     5   ar
    39    31    32    1
    40    31    33    1
@<TRIPOS>MOLECULE
*****
 37 40 0 0 0
SMALL
GASTEIGER

@<TRIPOS>ATOM
      1 C          62.1385   86.9317   11.6395 C.ar    1  UNL1        0.2490
      2 N          61.1679   86.2553   10.7175 N.ar    1  UNL1       -0.1863
      3 C          60.5388   87.0255    9.5945 C.ar    1  UNL1        0.2225
      4 N          60.8804   88.4722    9.3937 N.ar    1  UNL1       -0.1420
      5 N          61.8510   89.1486   10.3158 N.ar    1  UNL1       -0.2193
      6 C          62.3772   90.5525   10.3648 C.ar    1  UNL1        0.1371
      7 C          63.3314   90.6498   11.5181 C.ar    1  UNL1        0.1554
      8 C          63.3950   89.3062   12.1817 C.ar    1  UNL1        0.0359
      9 C          64.2274   88.9523   13.3784 C.3     1  UNL1        0.0360
     10 C          62.4801   88.3783   11.4387 C.ar    1  UNL1        0.1353
     11 O          62.7676   86.1614   12.7625 O.3     1  UNL1       -0.4328
     12 C          62.9837   78.6711   10.4233 C.3     1  UNL1        0.0521
     13 C          62.8673   79.9916   11.1253 C.2     1  UNL1        0.0591
     14 C          63.1078   81.3397   10.5131 C.2     1  UNL1        0.0182
     15 C          62.8791   82.3771   11.5721 C.2     1  UNL1        0.0455
     16 C          62.9692   83.8742   11.5467 C.2     1  UNL1        0.1752
     17 F          63.3511   84.5811   10.2800 F       1  UNL1       -0.2009
     18 C          62.6774   84.6643   12.7879 C.2     1  UNL1        0.1706
     19 C          62.2956   83.9574   14.0545 C.2     1  UNL1        0.0201
     20 C          62.2054   82.4603   14.0799 C.3     1  UNL1        0.0751
     21 C          62.4972   81.6702   12.8388 C.2     1  UNL1        0.0653
     22 N          62.4899   80.1958   12.5626 N.2     1  UNL1       -0.2536
     23 O          64.0891   91.8756   11.9345 O.3     1  UNL1       -0.4703
     24 C          65.1488   92.4432   11.0374 C.3     1  UNL1        0.2486
     25 C          65.7654   93.7736   11.3533 C.3     1  UNL1        0.2123
     26 C          65.4923   94.9553   10.4707 C.3     1  UNL1        0.0514
     27 O          66.6549   93.9223   12.5519 O.3     1  UNL1       -0.4475
     28 C          66.9497   92.7345   13.4191 C.2     1  UNL1        0.3311
     29 O          68.0104   91.7545   13.0135 O.2     1  UNL1       -0.2486
     30 C          66.1839   92.5265   14.6919 C.3     1  UNL1        0.1512
     31 N          64.8445   91.8519   14.6597 N.3     1  UNL1       -0.3134
     32 H          64.4697   91.7948   15.6066 H       1  UNL1        0.1193
     33 H          64.9463   90.9119   14.2770 H       1  UNL1        0.1193
     34 C          66.7573   92.9932   15.9971 C.3     1  UNL1        0.0269
     35 C          68.2445   93.0605   16.1815 C.3     1  UNL1        0.0019
     36 C          69.0227   91.8095   16.4628 C.3     1  UNL1        0.0001
     37 C          68.9533   94.3789   16.0847 C.3     1  UNL1        0.0001
@<TRIPOS>BOND
     1    12    13    1
     2    13    14    2
     3    14    15    1
     4    15    16    2
     5    16    17    1
     6    16    18    1
     7    18    11    1
     8    11     1    1
     9     1     2   ar
    10     2     3   ar
    11     3     4   ar
    12     4     5   ar
    13     5     6   ar
    14     6     7   ar
    15     7    23    1
    16    23    24    1
    17    24    25    1
    18    25    26    1
    19    25    27    1
    20    27    28    1
    21    28    29    2
    22    28    30    1
    23    30    31    1
    24    30    34    1
    25    34    35    1
    26    35    36    1
    27    35    37    1
    28     7     8   ar
    29     8     9    1
    30     8    10   ar
    31    18    19    2
    32    19    20    1
    33    20    21    1
    34    21    22    2
    35    22    13    1
    36    21    15    1
    37    10     1   ar
    38    10     5   ar
    39    31    32    1
    40    31    33    1
@<TRIPOS>MOLECULE
*****
 37 40 0 0 0
SMALL
GASTEIGER

@<TRIPOS>ATOM
      1 C          63.2616   83.1855   12.5001 C.ar    1  UNL1        0.2490
      2 N          62.6390   81.8569   12.1885 N.ar    1  UNL1       -0.1863
      3 C          61.9233   81.0935   13.2632 C.ar    1  UNL1        0.2225
      4 N          61.8303   81.6587   14.6495 N.ar    1  UNL1       -0.1420
      5 N          62.4529   82.9872   14.9612 N.ar    1  UNL1       -0.2193
      6 C          62.5226   83.7912   16.2256 C.ar    1  UNL1        0.1371
      7 C          63.2814   85.0515   15.9324 C.ar    1  UNL1        0.1554
      8 C          63.6806   85.0264   14.4867 C.ar    1  UNL1        0.0359
      9 C          64.4558   86.0903   13.7675 C.3     1  UNL1        0.0360
     10 C          63.1686   83.7507   13.8865 C.ar    1  UNL1        0.1353
     11 O          63.9773   83.9489   11.4254 O.3     1  UNL1       -0.4328
     12 C          58.7228   88.2606    7.4982 C.3     1  UNL1        0.0521
     13 C          59.8108   87.3509    7.9869 C.2     1  UNL1        0.0591
     14 C          60.1799   87.1085    9.4204 C.2     1  UNL1        0.0182
     15 C          61.3179   86.1317    9.4474 C.2     1  UNL1        0.0455
     16 C          62.0929   85.5246   10.5790 C.2     1  UNL1        0.1752
     17 F          61.7586   85.8859   11.9959 F       1  UNL1       -0.2009
     18 C          63.2023   84.5561   10.2938 C.2     1  UNL1        0.1706
     19 C          63.5366   84.1947    8.8769 C.2     1  UNL1        0.0201
     20 C          62.7615   84.8019    7.7452 C.3     1  UNL1        0.0751
     21 C          61.6522   85.7703    8.0304 C.2     1  UNL1        0.0653
     22 N          60.7207   86.5239    7.1279 N.2     1  UNL1       -0.2536
     23 O          63.5872   86.1448   16.9127 O.3     1  UNL1       -0.4703
     24 C          62.7983   87.4203   16.8838 C.3     1  UNL1        0.2486
     25 C          63.4022   88.6626   16.2989 C.3     1  UNL1        0.2123
     26 C          63.1220   89.9979   16.9222 C.3     1  UNL1        0.0514
     27 O          64.2862   88.5695   15.0907 O.3     1  UNL1       -0.4475
     28 C          64.6245   89.8061   14.3119 C.2     1  UNL1        0.3311
     29 O          65.8517   90.5969   14.6561 O.2     1  UNL1       -0.2486
     30 C          63.7356   90.2517   13.1888 C.3     1  UNL1        0.1512
     31 N          63.5482   91.7148   12.9160 N.3     1  UNL1       -0.3134
     32 H          62.9171   91.8348   12.1238 H       1  UNL1        0.1193
     33 H          64.4504   92.1386   12.6993 H       1  UNL1        0.1193
     34 C          63.0342   89.2344   12.3385 C.3     1  UNL1        0.0269
     35 C          61.9657   89.6675   11.3788 C.3     1  UNL1        0.0019
     36 C          62.3244   90.0162    9.9647 C.3     1  UNL1        0.0001
     37 C          60.5387   89.7517   11.8332 C.3     1  UNL1        0.0001
@<TRIPOS>BOND
     1    12    13    1
     2    13    14    2
     3    14    15    1
     4    15    16    2
     5    16    17    1
     6    16    18    1
     7    18    11    1
     8    11     1    1
     9     1     2   ar
    10     2     3   ar
    11     3     4   ar
    12     4     5   ar
    13     5     6   ar
    14     6     7   ar
    15     7    23    1
    16    23    24    1
    17    24    25    1
    18    25    26    1
    19    25    27    1
    20    27    28    1
    21    28    29    2
    22    28    30    1
    23    30    31    1
    24    30    34    1
    25    34    35    1
    26    35    36    1
    27    35    37    1
    28     7     8   ar
    29     8     9    1
    30     8    10   ar
    31    18    19    2
    32    19    20    1
    33    20    21    1
    34    21    22    2
    35    22    13    1
    36    21    15    1
    37    10     1   ar
    38    10     5   ar
    39    31    32    1
    40    31    33    1
@<TRIPOS>MOLECULE
*****
 37 40 0 0 0
SMALL
GASTEIGER

@<TRIPOS>ATOM
      1 C          60.8278   88.2577   10.5329 C.ar    1  UNL1        0.2490
      2 N          59.9088   88.9424    9.5652 N.ar    1  UNL1       -0.1863
      3 C          59.7116   88.3770    8.1899 C.ar    1  UNL1        0.2225
      4 N          60.4335   87.1269    7.7823 N.ar    1  UNL1       -0.1420
      5 N          61.3525   86.4422    8.7500 N.ar    1  UNL1       -0.2193
      6 C          62.1926   85.2051    8.6326 C.ar    1  UNL1        0.1371
      7 C          62.9091   85.0059    9.9353 C.ar    1  UNL1        0.1554
      8 C          62.5117   86.1199   10.8579 C.ar    1  UNL1        0.0359
      9 C          62.9920   86.3125   12.2658 C.3     1  UNL1        0.0360
     10 C          61.5497   87.0076   10.1253 C.ar    1  UNL1        0.1353
     11 O          61.0250   88.8231   11.9082 O.3     1  UNL1       -0.4328
     12 C          66.7587   94.0704   10.8066 C.3     1  UNL1        0.0521
     13 C          65.7513   93.0703   11.2912 C.2     1  UNL1        0.0591
     14 C          64.7073   92.3935   10.4533 C.2     1  UNL1        0.0182
     15 C          63.9217   91.4763   11.3431 C.2     1  UNL1        0.0455
     16 C          62.7700   90.5553   11.0688 C.2     1  UNL1        0.1752
     17 F          62.2116   90.4454    9.6810 F       1  UNL1       -0.2009
     18 C          62.1767   89.7441   12.1825 C.2     1  UNL1        0.1706
     19 C          62.7352   89.8541   13.5703 C.2     1  UNL1        0.0201
     20 C          63.8869   90.7752   13.8445 C.3     1  UNL1        0.0751
     21 C          64.4801   91.5863   12.7309 C.2     1  UNL1        0.0653
     22 N          65.6109   92.5714   12.6988 N.2     1  UNL1       -0.2536
     23 O          63.8565   83.8889   10.2587 O.3     1  UNL1       -0.4703
     24 C          63.3284   82.5093   10.5192 C.3     1  UNL1        0.2486
     25 C          63.4377   81.9108   11.8903 C.3     1  UNL1        0.2123
     26 C          62.7503   80.6139   12.1995 C.3     1  UNL1        0.0514
     27 O          64.2343   82.6092   12.9521 O.3     1  UNL1       -0.4475
     28 C          63.6203   82.8811   14.2934 C.2     1  UNL1        0.3311
     29 O          62.6750   81.8875   14.9008 O.2     1  UNL1       -0.2486
     30 C          63.9516   84.1466   15.0273 C.3     1  UNL1        0.1512
     31 N          65.3428   84.7047   14.9699 N.3     1  UNL1       -0.3134
     32 H          65.3885   85.5615   15.5214 H       1  UNL1        0.1193
     33 H          65.5869   84.9105   14.0012 H       1  UNL1        0.1193
     34 C          62.8918   84.8541   15.8186 C.3     1  UNL1        0.0269
     35 C          63.2024   86.1596   16.4890 C.3     1  UNL1        0.0019
     36 C          63.9629   87.2202   15.7495 C.3     1  UNL1        0.0001
     37 C          62.7525   86.4045   17.8988 C.3     1  UNL1        0.0001
@<TRIPOS>BOND
     1    12    13    1
     2    13    14    2
     3    14    15    1
     4    15    16    2
     5    16    17    1
     6    16    18    1
     7    18    11    1
     8    11     1    1
     9     1     2   ar
    10     2     3   ar
    11     3     4   ar
    12     4     5   ar
    13     5     6   ar
    14     6     7   ar
    15     7    23    1
    16    23    24    1
    17    24    25    1
    18    25    26    1
    19    25    27    1
    20    27    28    1
    21    28    29    2
    22    28    30    1
    23    30    31    1
    24    30    34    1
    25    34    35    1
    26    35    36    1
    27    35    37    1
    28     7     8   ar
    29     8     9    1
    30     8    10   ar
    31    18    19    2
    32    19    20    1
    33    20    21    1
    34    21    22    2
    35    22    13    1
    36    21    15    1
    37    10     1   ar
    38    10     5   ar
    39    31    32    1
    40    31    33    1
@<TRIPOS>MOLECULE
*****
 37 40 0 0 0
SMALL
GASTEIGER

@<TRIPOS>ATOM
      1 C          61.4223   89.2968   11.5022 C.ar    1  UNL1        0.2490
      2 N          60.4544   90.0199   10.6132 N.ar    1  UNL1       -0.1863
      3 C          59.8907   89.3344    9.4039 C.ar    1  UNL1        0.2225
      4 N          60.2949   87.9259    9.0836 N.ar    1  UNL1       -0.1420
      5 N          61.2628   87.2028    9.9725 N.ar    1  UNL1       -0.2193
      6 C          61.8420   85.8205    9.9111 C.ar    1  UNL1        0.1371
      7 C          62.7637   85.6516   11.0824 C.ar    1  UNL1        0.1554
      8 C          62.7541   86.9296   11.8678 C.ar    1  UNL1        0.0359
      9 C          63.5350   87.2012   13.1193 C.3     1  UNL1        0.0360
     10 C          61.8265   87.8883   11.1818 C.ar    1  UNL1        0.1353
     11 O          61.9860   89.9823   12.7114 O.3     1  UNL1       -0.4328
     12 C          67.7987   94.3735    9.7869 C.3     1  UNL1        0.0521
     13 C          66.8474   93.5326   10.5856 C.2     1  UNL1        0.0591
     14 C          65.5393   92.9803   10.1019 C.2     1  UNL1        0.0182
     15 C          64.9205   92.2027   11.2256 C.2     1  UNL1        0.0455
     16 C          63.6338   91.4387   11.3281 C.2     1  UNL1        0.1752
     17 F          62.7081   91.3670   10.1500 F       1  UNL1       -0.2009
     18 C          63.2727   90.7463   12.6089 C.2     1  UNL1        0.1706
     19 C          64.1984   90.8180   13.7870 C.2     1  UNL1        0.0201
     20 C          65.4851   91.5821   13.6844 C.3     1  UNL1        0.0751
     21 C          65.8462   92.2744   12.4037 C.2     1  UNL1        0.0653
     22 N          67.0370   93.0963   12.0082 N.2     1  UNL1       -0.2536
     23 O          63.5558   84.4209   11.4107 O.3     1  UNL1       -0.4703
     24 C          63.4345   83.1990   10.5494 C.3     1  UNL1        0.2486
     25 C          63.5700   81.8351   11.1590 C.3     1  UNL1        0.2123
     26 C          63.0654   80.6304   10.4213 C.3     1  UNL1        0.0514
     27 O          64.2099   81.6760   12.5062 O.3     1  UNL1       -0.4475
     28 C          63.3994   81.1829   13.6681 C.2     1  UNL1        0.3311
     29 O          63.8295   79.9556   14.4155 O.2     1  UNL1       -0.2486
     30 C          62.1588   81.9170   14.0824 C.3     1  UNL1        0.1512
     31 N          60.9203   81.1521   14.4448 N.3     1  UNL1       -0.3134
     32 H          60.1795   81.8053   14.6996 H       1  UNL1        0.1193
     33 H          61.1189   80.5382   15.2348 H       1  UNL1        0.1193
     34 C          62.1564   83.4161   14.1345 C.3     1  UNL1        0.0269
     35 C          63.0459   84.1343   15.1057 C.3     1  UNL1        0.0019
     36 C          62.4487   84.8569   16.2767 C.3     1  UNL1        0.0001
     37 C          64.5325   84.1297   14.9060 C.3     1  UNL1        0.0001
@<TRIPOS>BOND
     1    12    13    1
     2    13    14    2
     3    14    15    1
     4    15    16    2
     5    16    17    1
     6    16    18    1
     7    18    11    1
     8    11     1    1
     9     1     2   ar
    10     2     3   ar
    11     3     4   ar
    12     4     5   ar
    13     5     6   ar
    14     6     7   ar
    15     7    23    1
    16    23    24    1
    17    24    25    1
    18    25    26    1
    19    25    27    1
    20    27    28    1
    21    28    29    2
    22    28    30    1
    23    30    31    1
    24    30    34    1
    25    34    35    1
    26    35    36    1
    27    35    37    1
    28     7     8   ar
    29     8     9    1
    30     8    10   ar
    31    18    19    2
    32    19    20    1
    33    20    21    1
    34    21    22    2
    35    22    13    1
    36    21    15    1
    37    10     1   ar
    38    10     5   ar
    39    31    32    1
    40    31    33    1
