@<TRIPOS>MOLECULE
*****
 27 29 0 0 0
SMALL
GASTEIGER

@<TRIPOS>ATOM
      1 C          61.1758   86.3528    9.2563 C.3     1  UNL1        0.0521
      2 C          61.9326   86.2221   10.5448 C.ar    1  UNL1        0.0606
      3 C          62.4019   87.4504   11.2667 C.ar    1  UNL1        0.0290
      4 C          63.1587   87.3198   12.5552 C.ar    1  UNL1        0.0475
      5 C          63.4462   85.9609   13.1218 C.ar    1  UNL1        0.0309
      6 C          64.2030   85.8304   14.4102 C.ar    1  UNL1        0.0027
      7 C          64.4904   84.4716   14.9768 C.ar    1  UNL1        0.0003
      8 C          64.0211   83.2434   14.2549 C.ar    1  UNL1        0.0060
      9 C          63.2643   83.3739   12.9664 C.ar    1  UNL1        0.0708
     10 C          62.9768   84.7327   12.3999 C.ar    1  UNL1        0.0864
     11 N          62.2200   84.8633   11.1113 N.ar    1  UNL1       -0.2494
     12 C          62.7949   82.1457   12.2445 C.2     1  UNL1        0.2442
     13 N          63.2960   81.8511   10.8617 N.am    1  UNL1       -0.3253
     14 O          61.8246   81.2121   12.9053 O.2     1  UNL1       -0.2703
     15 H          63.9328   82.4638   10.4279 H       1  UNL1        0.1453
     16 H          62.9879   81.0449   10.3879 H       1  UNL1        0.1453
     17 N          63.6281   88.5480   13.2771 N.pl3   1  UNL1       -0.3290
     18 H          64.2866   88.4699   14.0048 H       1  UNL1        0.1471
     19 C          63.0941   89.8953   12.8904 C.3     1  UNL1        0.1148
     20 C          64.0377   90.9857   12.4773 C.ar    1  UNL1        0.0040
     21 C          63.9999   91.5193   11.0759 C.ar    1  UNL1       -0.0234
     22 C          63.0185   90.9625   10.0876 C.3     1  UNL1        0.0308
     23 C          64.9435   92.6097   10.6629 C.ar    1  UNL1       -0.0045
     24 C          65.9249   93.1666   11.6513 C.ar    1  UNL1        0.0005
     25 C          65.9627   92.6330   13.0526 C.ar    1  UNL1        0.0111
     26 C          65.0190   91.5426   13.4657 C.ar    1  UNL1        0.0550
     27 CL         65.0568   91.0090   14.8671 Cl      1  UNL1       -0.0825
@<TRIPOS>BOND
     1     1     2    1
     2     2     3   ar
     3     3     4   ar
     4     4    17    1
     5    17    19    1
     6    19    20    1
     7    20    21   ar
     8    21    22    1
     9    21    23   ar
    10    23    24   ar
    11    24    25   ar
    12    25    26   ar
    13    26    27    1
    14     4     5   ar
    15     5     6   ar
    16     6     7   ar
    17     7     8   ar
    18     8     9   ar
    19     9    12    1
    20    12    13   am
    21    12    14    2
    22     9    10   ar
    23    10    11   ar
    24    11     2   ar
    25    26    20   ar
    26    10     5   ar
    27    17    18    1
    28    13    15    1
    29    13    16    1
@<TRIPOS>MOLECULE
*****
 27 29 0 0 0
SMALL
GASTEIGER

@<TRIPOS>ATOM
      1 C          63.2885   89.4661   16.1793 C.3     1  UNL1        0.0521
      2 C          63.6108   90.1044   14.8607 C.ar    1  UNL1        0.0606
      3 C          62.7528   89.8249   13.6625 C.ar    1  UNL1        0.0290
      4 C          63.0751   90.4632   12.3439 C.ar    1  UNL1        0.0475
      5 C          64.2555   91.3811   12.2235 C.ar    1  UNL1        0.0309
      6 C          64.5778   92.0193   10.9049 C.ar    1  UNL1        0.0027
      7 C          65.7581   92.9371   10.7846 C.ar    1  UNL1        0.0003
      8 C          66.6161   93.2166   11.9828 C.ar    1  UNL1        0.0060
      9 C          66.2938   92.5783   13.3014 C.ar    1  UNL1        0.0708
     10 C          65.1135   91.6606   13.4217 C.ar    1  UNL1        0.0864
     11 N          64.7911   91.0222   14.7404 N.ar    1  UNL1       -0.2494
     12 C          67.1518   92.8578   14.4996 C.2     1  UNL1        0.2442
     13 N          66.5153   93.1590   15.8240 N.am    1  UNL1       -0.3253
     14 O          68.6463   92.8362   14.3734 O.2     1  UNL1       -0.2703
     15 H          65.5344   93.1732   15.9069 H       1  UNL1        0.1453
     16 H          67.0784   93.3424   16.6104 H       1  UNL1        0.1453
     17 N          62.2171   90.1837   11.1457 N.pl3   1  UNL1       -0.3290
     18 H          62.3202   90.7245   10.3295 H       1  UNL1        0.1471
     19 C          61.2021   89.0803   11.1910 C.3     1  UNL1        0.1148
     20 C          61.3095   87.9230   10.2428 C.ar    1  UNL1        0.0040
     21 C          62.1078   86.7119   10.6249 C.ar    1  UNL1       -0.0234
     22 C          62.7987   86.6581   11.9551 C.3     1  UNL1        0.0308
     23 C          62.2152   85.5546    9.6766 C.ar    1  UNL1       -0.0045
     24 C          61.5242   85.6085    8.3463 C.ar    1  UNL1        0.0005
     25 C          60.7259   86.8195    7.9642 C.ar    1  UNL1        0.0111
     26 C          60.6186   87.9768    8.9125 C.ar    1  UNL1        0.0550
     27 CL         59.8202   89.1879    8.5304 Cl      1  UNL1       -0.0825
@<TRIPOS>BOND
     1     1     2    1
     2     2     3   ar
     3     3     4   ar
     4     4    17    1
     5    17    19    1
     6    19    20    1
     7    20    21   ar
     8    21    22    1
     9    21    23   ar
    10    23    24   ar
    11    24    25   ar
    12    25    26   ar
    13    26    27    1
    14     4     5   ar
    15     5     6   ar
    16     6     7   ar
    17     7     8   ar
    18     8     9   ar
    19     9    12    1
    20    12    13   am
    21    12    14    2
    22     9    10   ar
    23    10    11   ar
    24    11     2   ar
    25    26    20   ar
    26    10     5   ar
    27    17    18    1
    28    13    15    1
    29    13    16    1
@<TRIPOS>MOLECULE
*****
 27 29 0 0 0
SMALL
GASTEIGER

@<TRIPOS>ATOM
      1 C          61.2484   86.5042    9.1761 C.3     1  UNL1        0.0521
      2 C          61.9839   86.3657   10.4760 C.ar    1  UNL1        0.0606
      3 C          62.4113   87.5900   11.2301 C.ar    1  UNL1        0.0290
      4 C          63.1468   87.4515   12.5300 C.ar    1  UNL1        0.0475
      5 C          63.4550   86.0888   13.0759 C.ar    1  UNL1        0.0309
      6 C          64.1906   85.9504   14.3758 C.ar    1  UNL1        0.0027
      7 C          64.4988   84.5877   14.9217 C.ar    1  UNL1        0.0003
      8 C          64.0714   83.3634   14.1676 C.ar    1  UNL1        0.0060
      9 C          63.3359   83.5018   12.8677 C.ar    1  UNL1        0.0708
     10 C          63.0277   84.8645   12.3219 C.ar    1  UNL1        0.0864
     11 N          62.2921   85.0030   11.0219 N.ar    1  UNL1       -0.2494
     12 C          62.9086   82.2776   12.1137 C.2     1  UNL1        0.2442
     13 N          63.4460   82.0187   10.7374 N.am    1  UNL1       -0.3253
     14 O          61.9438   81.3122   12.7359 O.2     1  UNL1       -0.2703
     15 H          64.0793   82.6523   10.3290 H       1  UNL1        0.1453
     16 H          63.1655   81.2152   10.2426 H       1  UNL1        0.1453
     17 N          63.5741   88.6758   13.2840 N.pl3   1  UNL1       -0.3290
     18 H          64.1708   88.5912   14.0625 H       1  UNL1        0.1471
     19 C          63.0924   90.0290   12.8519 C.3     1  UNL1        0.1148
     20 C          64.0793   91.0782   12.4335 C.ar    1  UNL1        0.0040
     21 C          65.0820   91.6004   13.4195 C.ar    1  UNL1       -0.0234
     22 C          65.0976   91.0735   14.8238 C.3     1  UNL1        0.0308
     23 C          66.0690   92.6496   13.0010 C.ar    1  UNL1       -0.0045
     24 C          66.0533   93.1765   11.5967 C.ar    1  UNL1        0.0005
     25 C          65.0507   92.6543   10.6108 C.ar    1  UNL1        0.0111
     26 C          64.0637   91.6051   11.0292 C.ar    1  UNL1        0.0550
     27 CL         63.0611   91.0828   10.0433 Cl      1  UNL1       -0.0825
@<TRIPOS>BOND
     1     1     2    1
     2     2     3   ar
     3     3     4   ar
     4     4    17    1
     5    17    19    1
     6    19    20    1
     7    20    21   ar
     8    21    22    1
     9    21    23   ar
    10    23    24   ar
    11    24    25   ar
    12    25    26   ar
    13    26    27    1
    14     4     5   ar
    15     5     6   ar
    16     6     7   ar
    17     7     8   ar
    18     8     9   ar
    19     9    12    1
    20    12    13   am
    21    12    14    2
    22     9    10   ar
    23    10    11   ar
    24    11     2   ar
    25    26    20   ar
    26    10     5   ar
    27    17    18    1
    28    13    15    1
    29    13    16    1
@<TRIPOS>MOLECULE
*****
 27 29 0 0 0
SMALL
GASTEIGER

@<TRIPOS>ATOM
      1 C          64.6304   86.1724   15.0416 C.3     1  UNL1        0.0521
      2 C          64.0955   87.2429   14.1371 C.ar    1  UNL1        0.0606
      3 C          64.2032   88.6848   14.5362 C.ar    1  UNL1        0.0290
      4 C          63.6683   89.7553   13.6319 C.ar    1  UNL1        0.0475
      5 C          63.0256   89.3839   12.3283 C.ar    1  UNL1        0.0309
      6 C          62.4907   90.4543   11.4239 C.ar    1  UNL1        0.0027
      7 C          61.8481   90.0829   10.1205 C.ar    1  UNL1        0.0003
      8 C          61.7405   88.6410    9.7214 C.ar    1  UNL1        0.0060
      9 C          62.2754   87.5705   10.6258 C.ar    1  UNL1        0.0708
     10 C          62.9179   87.9419   11.9292 C.ar    1  UNL1        0.0864
     11 N          63.4529   86.8714   12.8337 N.ar    1  UNL1       -0.2494
     12 C          62.1677   86.1286   10.2267 C.2     1  UNL1        0.2442
     13 N          61.8019   85.0929   11.2482 N.am    1  UNL1       -0.3253
     14 O          62.4258   85.7223    8.8060 O.2     1  UNL1       -0.2703
     15 H          61.6324   85.3596   12.1806 H       1  UNL1        0.1453
     16 H          61.7312   84.1466   10.9862 H       1  UNL1        0.1453
     17 N          63.7759   91.1972   14.0310 N.pl3   1  UNL1       -0.3290
     18 H          63.1307   91.5812   14.6677 H       1  UNL1        0.1471
     19 C          64.8667   92.0540   13.4600 C.3     1  UNL1        0.1148
     20 C          66.1711   92.1914   14.1877 C.ar    1  UNL1        0.0040
     21 C          67.4622   92.1643   13.4245 C.ar    1  UNL1       -0.0234
     22 C          67.4488   91.9999   11.9336 C.3     1  UNL1        0.0308
     23 C          68.7667   92.3017   14.1522 C.ar    1  UNL1       -0.0045
     24 C          68.7800   92.4661   15.6432 C.ar    1  UNL1        0.0005
     25 C          67.4889   92.4932   16.4063 C.ar    1  UNL1        0.0111
     26 C          66.1845   92.3558   15.6786 C.ar    1  UNL1        0.0550
     27 CL         64.8934   92.3829   16.4418 Cl      1  UNL1       -0.0825
@<TRIPOS>BOND
     1     1     2    1
     2     2     3   ar
     3     3     4   ar
     4     4    17    1
     5    17    19    1
     6    19    20    1
     7    20    21   ar
     8    21    22    1
     9    21    23   ar
    10    23    24   ar
    11    24    25   ar
    12    25    26   ar
    13    26    27    1
    14     4     5   ar
    15     5     6   ar
    16     6     7   ar
    17     7     8   ar
    18     8     9   ar
    19     9    12    1
    20    12    13   am
    21    12    14    2
    22     9    10   ar
    23    10    11   ar
    24    11     2   ar
    25    26    20   ar
    26    10     5   ar
    27    17    18    1
    28    13    15    1
    29    13    16    1
@<TRIPOS>MOLECULE
*****
 27 29 0 0 0
SMALL
GASTEIGER

@<TRIPOS>ATOM
      1 C          61.5142   89.4452    9.8069 C.3     1  UNL1        0.0521
      2 C          62.2507   88.9828   11.0292 C.ar    1  UNL1        0.0606
      3 C          62.8344   89.9873   11.9780 C.ar    1  UNL1        0.0290
      4 C          63.5708   89.5249   13.2001 C.ar    1  UNL1        0.0475
      5 C          63.7237   88.0579   13.4736 C.ar    1  UNL1        0.0309
      6 C          64.4602   87.5955   14.6957 C.ar    1  UNL1        0.0027
      7 C          64.6130   86.1286   14.9691 C.ar    1  UNL1        0.0003
      8 C          64.0293   85.1241   14.0203 C.ar    1  UNL1        0.0060
      9 C          63.2928   85.5865   12.7981 C.ar    1  UNL1        0.0708
     10 C          63.1400   87.0534   12.5247 C.ar    1  UNL1        0.0864
     11 N          62.4035   87.5159   11.3025 N.ar    1  UNL1       -0.2494
     12 C          62.7091   84.5820   11.8493 C.2     1  UNL1        0.2442
     13 N          62.3570   84.9890   10.4492 N.am    1  UNL1       -0.3253
     14 O          62.4775   83.1704   12.3005 O.2     1  UNL1       -0.2703
     15 H          62.5090   85.9155   10.1530 H       1  UNL1        0.1453
     16 H          61.9739   84.3297    9.8265 H       1  UNL1        0.1453
     17 N          64.1545   90.5294   14.1490 N.pl3   1  UNL1       -0.3290
     18 H          64.0001   90.4397   15.1171 H       1  UNL1        0.1471
     19 C          64.9734   91.6706   13.6227 C.3     1  UNL1        0.1148
     20 C          66.2512   92.0555   14.3077 C.ar    1  UNL1        0.0040
     21 C          67.5335   92.1043   13.5309 C.ar    1  UNL1       -0.0234
     22 C          67.5380   91.7682   12.0690 C.3     1  UNL1        0.0308
     23 C          68.8112   92.4891   14.2159 C.ar    1  UNL1       -0.0045
     24 C          68.8066   92.8251   15.6778 C.ar    1  UNL1        0.0005
     25 C          67.5244   92.7763   16.4546 C.ar    1  UNL1        0.0111
     26 C          66.2467   92.3915   15.7696 C.ar    1  UNL1        0.0550
     27 CL         64.9644   92.3427   16.5464 Cl      1  UNL1       -0.0825
@<TRIPOS>BOND
     1     1     2    1
     2     2     3   ar
     3     3     4   ar
     4     4    17    1
     5    17    19    1
     6    19    20    1
     7    20    21   ar
     8    21    22    1
     9    21    23   ar
    10    23    24   ar
    11    24    25   ar
    12    25    26   ar
    13    26    27    1
    14     4     5   ar
    15     5     6   ar
    16     6     7   ar
    17     7     8   ar
    18     8     9   ar
    19     9    12    1
    20    12    13   am
    21    12    14    2
    22     9    10   ar
    23    10    11   ar
    24    11     2   ar
    25    26    20   ar
    26    10     5   ar
    27    17    18    1
    28    13    15    1
    29    13    16    1
@<TRIPOS>MOLECULE
*****
 27 29 0 0 0
SMALL
GASTEIGER

@<TRIPOS>ATOM
      1 C          64.6741   86.0286   15.5209 C.3     1  UNL1        0.0521
      2 C          64.0442   86.3623   14.2010 C.ar    1  UNL1        0.0606
      3 C          63.7508   87.7908   13.8499 C.ar    1  UNL1        0.0290
      4 C          63.1210   88.1246   12.5301 C.ar    1  UNL1        0.0475
      5 C          62.7846   87.0298   11.5613 C.ar    1  UNL1        0.0309
      6 C          62.1548   87.3636   10.2415 C.ar    1  UNL1        0.0027
      7 C          61.8185   86.2688    9.2728 C.ar    1  UNL1        0.0003
      8 C          62.1119   84.8403    9.6240 C.ar    1  UNL1        0.0060
      9 C          62.7417   84.5066   10.9438 C.ar    1  UNL1        0.0708
     10 C          63.0781   85.6013   11.9124 C.ar    1  UNL1        0.0864
     11 N          63.7079   85.2676   13.2323 N.ar    1  UNL1       -0.2494
     12 C          63.0351   83.0781   11.2949 C.2     1  UNL1        0.2442
     13 N          62.4334   82.4698   12.5269 N.am    1  UNL1       -0.3253
     14 O          63.9303   82.2579   10.4140 O.2     1  UNL1       -0.2703
     15 H          61.8459   83.0081   13.1050 H       1  UNL1        0.1453
     16 H          62.6260   81.5322   12.7573 H       1  UNL1        0.1453
     17 N          62.8276   89.5531   12.1789 N.pl3   1  UNL1       -0.3290
     18 H          62.2643   89.7626   11.3991 H       1  UNL1        0.1471
     19 C          63.3924   90.6623   13.0159 C.3     1  UNL1        0.1148
     20 C          64.5287   91.4912   12.4946 C.ar    1  UNL1        0.0040
     21 C          65.6815   91.8322   13.3918 C.ar    1  UNL1       -0.0234
     22 C          65.6980   91.3443   14.8101 C.3     1  UNL1        0.0308
     23 C          66.8178   92.6611   12.8705 C.ar    1  UNL1       -0.0045
     24 C          66.8013   93.1491   11.4522 C.ar    1  UNL1        0.0005
     25 C          65.6485   92.8081   10.5551 C.ar    1  UNL1        0.0111
     26 C          64.5122   91.9792   11.0763 C.ar    1  UNL1        0.0550
     27 CL         63.3594   91.6382   10.1792 Cl      1  UNL1       -0.0825
@<TRIPOS>BOND
     1     1     2    1
     2     2     3   ar
     3     3     4   ar
     4     4    17    1
     5    17    19    1
     6    19    20    1
     7    20    21   ar
     8    21    22    1
     9    21    23   ar
    10    23    24   ar
    11    24    25   ar
    12    25    26   ar
    13    26    27    1
    14     4     5   ar
    15     5     6   ar
    16     6     7   ar
    17     7     8   ar
    18     8     9   ar
    19     9    12    1
    20    12    13   am
    21    12    14    2
    22     9    10   ar
    23    10    11   ar
    24    11     2   ar
    25    26    20   ar
    26    10     5   ar
    27    17    18    1
    28    13    15    1
    29    13    16    1
@<TRIPOS>MOLECULE
*****
 27 29 0 0 0
SMALL
GASTEIGER

@<TRIPOS>ATOM
      1 C          63.6927   85.9962   17.1348 C.3     1  UNL1        0.0521
      2 C          63.5254   85.8187   15.6547 C.ar    1  UNL1        0.0606
      3 C          63.5732   87.0112   14.7461 C.ar    1  UNL1        0.0290
      4 C          63.4059   86.8337   13.2661 C.ar    1  UNL1        0.0475
      5 C          63.1908   85.4635   12.6947 C.ar    1  UNL1        0.0309
      6 C          63.0235   85.2860   11.2147 C.ar    1  UNL1        0.0027
      7 C          62.8084   83.9159   10.6432 C.ar    1  UNL1        0.0003
      8 C          62.7606   82.7233   11.5518 C.ar    1  UNL1        0.0060
      9 C          62.9279   82.9009   13.0318 C.ar    1  UNL1        0.0708
     10 C          63.1430   84.2710   13.6032 C.ar    1  UNL1        0.0864
     11 N          63.3103   84.4486   15.0833 N.ar    1  UNL1       -0.2494
     12 C          62.8801   81.7083   13.9404 C.2     1  UNL1        0.2442
     13 N          61.6351   81.4105   14.7222 N.am    1  UNL1       -0.3253
     14 O          64.0773   80.8136   14.0673 O.2     1  UNL1       -0.2703
     15 H          60.8493   81.9977   14.6390 H       1  UNL1        0.1453
     16 H          61.6038   80.6278   15.3185 H       1  UNL1        0.1453
     17 N          63.4537   88.0262   12.3575 N.pl3   1  UNL1       -0.3290
     18 H          63.7205   87.9174   11.4162 H       1  UNL1        0.1471
     19 C          63.0949   89.3845   12.8832 C.3     1  UNL1        0.1148
     20 C          63.9115   90.5801   12.4914 C.ar    1  UNL1        0.0040
     21 C          63.7161   91.2135   11.1457 C.ar    1  UNL1       -0.0234
     22 C          62.7041   90.6513   10.1920 C.3     1  UNL1        0.0308
     23 C          64.5328   92.4091   10.7539 C.ar    1  UNL1       -0.0045
     24 C          65.5449   92.9714   11.7078 C.ar    1  UNL1        0.0005
     25 C          65.7402   92.3380   13.0533 C.ar    1  UNL1        0.0111
     26 C          64.9236   91.1423   13.4451 C.ar    1  UNL1        0.0550
     27 CL         65.1189   90.5089   14.7908 Cl      1  UNL1       -0.0825
@<TRIPOS>BOND
     1     1     2    1
     2     2     3   ar
     3     3     4   ar
     4     4    17    1
     5    17    19    1
     6    19    20    1
     7    20    21   ar
     8    21    22    1
     9    21    23   ar
    10    23    24   ar
    11    24    25   ar
    12    25    26   ar
    13    26    27    1
    14     4     5   ar
    15     5     6   ar
    16     6     7   ar
    17     7     8   ar
    18     8     9   ar
    19     9    12    1
    20    12    13   am
    21    12    14    2
    22     9    10   ar
    23    10    11   ar
    24    11     2   ar
    25    26    20   ar
    26    10     5   ar
    27    17    18    1
    28    13    15    1
    29    13    16    1
@<TRIPOS>MOLECULE
*****
 27 29 0 0 0
SMALL
GASTEIGER

@<TRIPOS>ATOM
      1 C          61.1201   86.6798    9.5335 C.3     1  UNL1        0.0521
      2 C          61.9459   86.5008   10.7730 C.ar    1  UNL1        0.0606
      3 C          62.5407   87.6960   11.4570 C.ar    1  UNL1        0.0290
      4 C          63.3664   87.5170   12.6964 C.ar    1  UNL1        0.0475
      5 C          63.5973   86.1429   13.2519 C.ar    1  UNL1        0.0309
      6 C          64.4231   85.9640   14.4912 C.ar    1  UNL1        0.0027
      7 C          64.6540   84.5899   15.0466 C.ar    1  UNL1        0.0003
      8 C          64.0592   83.3947   14.3626 C.ar    1  UNL1        0.0060
      9 C          63.2335   83.5737   13.1232 C.ar    1  UNL1        0.0708
     10 C          63.0026   84.9478   12.5679 C.ar    1  UNL1        0.0864
     11 N          62.1768   85.1267   11.3284 N.ar    1  UNL1       -0.2494
     12 C          62.6387   82.3785   12.4392 C.2     1  UNL1        0.2442
     13 N          61.4257   81.7108   13.0159 N.am    1  UNL1       -0.3253
     14 O          63.2570   81.8510   11.1785 O.2     1  UNL1       -0.2703
     15 H          61.0198   82.0570   13.8434 H       1  UNL1        0.1453
     16 H          61.0353   80.9264   12.5670 H       1  UNL1        0.1453
     17 N          63.9611   88.7122   13.3804 N.pl3   1  UNL1       -0.3290
     18 H          64.6258   88.5895   14.0962 H       1  UNL1        0.1471
     19 C          63.5432   90.0942   12.9738 C.3     1  UNL1        0.1148
     20 C          64.4618   91.2560   13.2115 C.ar    1  UNL1        0.0040
     21 C          64.9240   92.0951   12.0571 C.ar    1  UNL1       -0.0234
     22 C          64.4675   91.7724   10.6652 C.3     1  UNL1        0.0308
     23 C          65.8426   93.2568   12.2948 C.ar    1  UNL1       -0.0045
     24 C          66.2990   93.5795   13.6868 C.ar    1  UNL1        0.0005
     25 C          65.8369   92.7404   14.8410 C.ar    1  UNL1        0.0111
     26 C          64.9183   91.5786   14.6034 C.ar    1  UNL1        0.0550
     27 CL         64.4562   90.7395   15.7577 Cl      1  UNL1       -0.0825
@<TRIPOS>BOND
     1     1     2    1
     2     2     3   ar
     3     3     4   ar
     4     4    17    1
     5    17    19    1
     6    19    20    1
     7    20    21   ar
     8    21    22    1
     9    21    23   ar
    10    23    24   ar
    11    24    25   ar
    12    25    26   ar
    13    26    27    1
    14     4     5   ar
    15     5     6   ar
    16     6     7   ar
    17     7     8   ar
    18     8     9   ar
    19     9    12    1
    20    12    13   am
    21    12    14    2
    22     9    10   ar
    23    10    11   ar
    24    11     2   ar
    25    26    20   ar
    26    10     5   ar
    27    17    18    1
    28    13    15    1
    29    13    16    1
@<TRIPOS>MOLECULE
*****
 27 29 0 0 0
SMALL
GASTEIGER

@<TRIPOS>ATOM
      1 C          64.3963   87.5119   15.6239 C.3     1  UNL1        0.0521
      2 C          64.0990   88.2655   14.3614 C.ar    1  UNL1        0.0606
      3 C          63.2211   87.6524   13.3110 C.ar    1  UNL1        0.0290
      4 C          62.9237   88.4059   12.0486 C.ar    1  UNL1        0.0475
      5 C          63.5043   89.7727   11.8366 C.ar    1  UNL1        0.0309
      6 C          63.2070   90.5263   10.5742 C.ar    1  UNL1        0.0027
      7 C          63.7875   91.8930   10.3622 C.ar    1  UNL1        0.0003
      8 C          64.6654   92.5062   11.4126 C.ar    1  UNL1        0.0060
      9 C          64.9628   91.7526   12.6750 C.ar    1  UNL1        0.0708
     10 C          64.3822   90.3859   12.8870 C.ar    1  UNL1        0.0864
     11 N          64.6795   89.6323   14.1494 N.ar    1  UNL1       -0.2494
     12 C          65.8406   92.3658   13.7254 C.2     1  UNL1        0.2442
     13 N          65.4850   92.2250   15.1758 N.am    1  UNL1       -0.3253
     14 O          67.0741   93.1197   13.3254 O.2     1  UNL1       -0.2703
     15 H          64.6754   91.7302   15.4383 H       1  UNL1        0.1453
     16 H          66.0612   92.6274   15.8652 H       1  UNL1        0.1453
     17 N          62.0459   87.7928   10.9982 N.pl3   1  UNL1       -0.3290
     18 H          61.8101   88.3067   10.1923 H       1  UNL1        0.1471
     19 C          61.5271   86.3966   11.1757 C.3     1  UNL1        0.1148
     20 C          62.4326   85.2244   10.9390 C.ar    1  UNL1        0.0040
     21 C          62.9422   84.9372    9.5577 C.ar    1  UNL1       -0.0234
     22 C          62.5463   85.8223    8.4132 C.3     1  UNL1        0.0308
     23 C          63.8476   83.7649    9.3210 C.ar    1  UNL1       -0.0045
     24 C          64.2434   82.8799   10.4656 C.ar    1  UNL1        0.0005
     25 C          63.7338   83.1670   11.8468 C.ar    1  UNL1        0.0111
     26 C          62.8284   84.3393   12.0835 C.ar    1  UNL1        0.0550
     27 CL         62.3188   84.6265   13.4648 Cl      1  UNL1       -0.0825
@<TRIPOS>BOND
     1     1     2    1
     2     2     3   ar
     3     3     4   ar
     4     4    17    1
     5    17    19    1
     6    19    20    1
     7    20    21   ar
     8    21    22    1
     9    21    23   ar
    10    23    24   ar
    11    24    25   ar
    12    25    26   ar
    13    26    27    1
    14     4     5   ar
    15     5     6   ar
    16     6     7   ar
    17     7     8   ar
    18     8     9   ar
    19     9    12    1
    20    12    13   am
    21    12    14    2
    22     9    10   ar
    23    10    11   ar
    24    11     2   ar
    25    26    20   ar
    26    10     5   ar
    27    17    18    1
    28    13    15    1
    29    13    16    1
