@<TRIPOS>MOLECULE
*****
 49 55 0 0 0
SMALL
GASTEIGER

@<TRIPOS>ATOM
      1 C          64.5397   90.4794   13.8776 C.3     1  UNL1        0.0194
      2 C          64.0356   90.4677   12.4650 C.3     1  UNL1        0.0041
      3 C          64.3754   91.5970   11.5381 C.3     1  UNL1        0.0008
      4 C          65.2193   92.7380   12.0239 C.3     1  UNL1        0.0000
      5 C          65.7234   92.7497   13.4366 C.3     1  UNL1        0.0008
      6 C          63.9700   89.9921   13.0753 C.3     1  UNL1        0.0086
      7 C          63.1918   89.3267   11.9792 C.3     1  UNL1        0.0694
      8 C          63.5316   90.4560   11.0523 C.3     1  UNL1        0.0086
      9 C          63.6959   89.3384   13.3918 C.3     1  UNL1        0.0127
     10 C          65.3836   91.6204   14.3634 C.3     1  UNL1        0.0041
     11 C          62.3479   88.1857   11.4934 C.2     1  UNL1        0.2248
     12 O          62.4302   86.8502   12.1713 O.2     1  UNL1       -0.2749
     13 N          61.4217   88.3801   10.3296 N.am    1  UNL1       -0.2767
     14 C          60.5779   87.2391    9.8438 C.3     1  UNL1        0.1107
     15 C          59.6516   87.4337    8.6800 C.3     1  UNL1        0.0942
     16 N          59.5693   88.7692    8.0021 N.3     1  UNL1       -0.2660
     17 C          60.4132   89.9102    8.4879 C.3     1  UNL1        0.0942
     18 C          61.3394   89.7157    9.6516 C.3     1  UNL1        0.1107
     19 C          58.6431   88.9637    6.8383 C.3     1  UNL1        0.0992
     20 C          58.8775   90.0876    5.8730 C.ar    1  UNL1       -0.0059
     21 C          60.2705   90.4065    5.4171 C.ar    1  UNL1        0.0002
     22 C          60.5049   91.5304    4.4518 C.ar    1  UNL1        0.0366
     23 C          59.3462   92.3355    3.9424 C.ar    1  UNL1        0.1387
     24 C          57.9533   92.0166    4.3983 C.ar    1  UNL1        0.0366
     25 C          57.7189   90.8927    5.3636 C.ar    1  UNL1        0.0002
     26 O          59.5806   93.4594    2.9770 O.3     1  UNL1       -0.4714
     27 C          59.5923   93.1905    1.5013 C.3     1  UNL1        0.2525
     28 C          63.5204   87.0914   16.6585 C.ar    1  UNL1        0.1393
     29 C          63.0653   88.4851   16.9759 C.ar    1  UNL1        0.0366
     30 C          63.4051   89.6143   16.0489 C.ar    1  UNL1       -0.0012
     31 C          64.1999   89.3500   14.8046 C.ar    1  UNL1       -0.0226
     32 C          64.6550   87.9564   14.4873 C.ar    1  UNL1       -0.0012
     33 C          64.3153   86.8271   15.4142 C.ar    1  UNL1        0.0366
     34 O          63.1806   85.9622   17.5855 O.3     1  UNL1       -0.4656
     35 C          62.0946   84.9938   17.2212 C.3     1  UNL1        0.2897
     36 N          62.8257   83.0336   15.6806 N.am    1  UNL1       -0.2809
     37 C          62.1003   84.3320   15.8750 C.2     1  UNL1        0.2707
     38 O          61.3805   84.9688   14.7233 O.2     1  UNL1       -0.2707
     39 H          63.2981   82.6157   16.4365 H       1  UNL1        0.1550
     40 C          63.3197   82.4635   11.7843 C.ar    1  UNL1        0.0769
     41 C          62.8427   81.0486   11.6421 C.ar    1  UNL1        0.0065
     42 C          62.3599   80.2953   12.8461 C.ar    1  UNL1        0.0015
     43 C          62.3543   80.9569   14.1922 C.ar    1  UNL1        0.0147
     44 C          62.8314   82.3720   14.3345 C.ar    1  UNL1        0.0506
     45 C          63.3141   83.1253   13.1305 C.ar    1  UNL1        0.0211
     46 C          63.8024   83.2169   10.5804 C.2     1  UNL1        0.3414
     47 O          64.9449   82.6815    9.7690 O.2     1  UNL1       -0.2449
     48 C          63.1169   84.9267    8.7483 C.3     1  UNL1        0.2560
     49 O          63.1427   84.5055   10.1877 O.3     1  UNL1       -0.4413
@<TRIPOS>BOND
     1    48    49    1
     2    49    46    1
     3    46    47    2
     4    46    40    1
     5    40    41   ar
     6    41    42   ar
     7    42    43   ar
     8    43    44   ar
     9    44    36    1
    10    36    37   am
    11    37    38    2
    12    37    35    1
    13    35    34    1
    14    34    28    1
    15    28    29   ar
    16    29    30   ar
    17    30    31   ar
    18    31     1    1
    19     1     2    1
    20     2     3    1
    21     3     4    1
    22     4     5    1
    23     5     6    1
    24     6     7    1
    25     7    11    1
    26    11    12    2
    27    11    13   am
    28    13    14    1
    29    14    15    1
    30    15    16    1
    31    16    19    1
    32    19    20    1
    33    20    21   ar
    34    21    22   ar
    35    22    23   ar
    36    23    26    1
    37    26    27    1
    38    23    24   ar
    39    24    25   ar
    40    16    17    1
    41    17    18    1
    42     7     8    1
    43     7     9    1
    44     5    10    1
    45    31    32   ar
    46    32    33   ar
    47    44    45   ar
    48    45    40   ar
    49    33    28   ar
    50     9     1    1
    51    10     1    1
    52     8     3    1
    53    18    13    1
    54    25    20   ar
    55    36    39    1
@<TRIPOS>MOLECULE
*****
 49 55 0 0 0
SMALL
GASTEIGER

@<TRIPOS>ATOM
      1 C          64.5267   90.5698   13.8055 C.3     1  UNL1        0.0194
      2 C          64.0353   90.5622   12.3884 C.3     1  UNL1        0.0041
      3 C          64.3928   91.6885   11.4645 C.3     1  UNL1        0.0008
      4 C          65.2418   92.8224   11.9578 C.3     1  UNL1        0.0000
      5 C          65.7332   92.8301   13.3750 C.3     1  UNL1        0.0008
      6 C          63.9602   90.0873   12.9981 C.3     1  UNL1        0.0086
      7 C          63.1863   89.4282   11.8951 C.3     1  UNL1        0.0694
      8 C          63.5439   90.5545   10.9712 C.3     1  UNL1        0.0086
      9 C          63.6777   89.4359   13.3122 C.3     1  UNL1        0.0127
     10 C          65.3757   91.7038   14.2989 C.3     1  UNL1        0.0041
     11 C          62.3373   88.2942   11.4018 C.2     1  UNL1        0.2248
     12 O          62.4030   86.9580   12.0800 O.2     1  UNL1       -0.2749
     13 N          61.4227   88.4965   10.2303 N.am    1  UNL1       -0.2767
     14 C          60.5737   87.3626    9.7370 C.3     1  UNL1        0.1107
     15 C          59.6590   87.5650    8.5654 C.3     1  UNL1        0.0942
     16 N          59.5934   88.9012    7.8872 N.3     1  UNL1       -0.2660
     17 C          60.4424   90.0352    8.3805 C.3     1  UNL1        0.0942
     18 C          61.3570   89.8329    9.5520 C.3     1  UNL1        0.1107
     19 C          58.6787   89.1036    6.7156 C.3     1  UNL1        0.0992
     20 C          58.9261   90.2303    5.7568 C.ar    1  UNL1       -0.0059
     21 C          57.7781   91.0582    5.2601 C.ar    1  UNL1        0.0002
     22 C          58.0255   92.1849    4.3013 C.ar    1  UNL1        0.0366
     23 C          59.4210   92.4838    3.8392 C.ar    1  UNL1        0.1387
     24 C          60.5689   91.6559    4.3360 C.ar    1  UNL1        0.0366
     25 C          60.3215   90.5292    5.2948 C.ar    1  UNL1        0.0002
     26 O          59.6684   93.6105    2.8805 O.3     1  UNL1       -0.4714
     27 C          60.5176   93.3875    1.6642 C.3     1  UNL1        0.2525
     28 C          63.4540   87.1909   16.5774 C.ar    1  UNL1        0.1393
     29 C          62.9826   88.5836   16.8748 C.ar    1  UNL1        0.0366
     30 C          63.3401   89.7098   15.9509 C.ar    1  UNL1       -0.0012
     31 C          64.1691   89.4435   14.7295 C.ar    1  UNL1       -0.0226
     32 C          64.6406   88.0510   14.4320 C.ar    1  UNL1       -0.0012
     33 C          64.2830   86.9246   15.3560 C.ar    1  UNL1        0.0366
     34 O          63.0964   86.0647   17.5013 O.3     1  UNL1       -0.4656
     35 C          62.3768   84.8599   16.9717 C.3     1  UNL1        0.2897
     36 N          62.3374   84.4392   14.4082 N.am    1  UNL1       -0.2809
     37 C          62.9039   84.1417   15.7648 C.2     1  UNL1        0.2707
     38 O          63.9976   83.1261   15.9147 O.2     1  UNL1       -0.2707
     39 H          61.6196   85.1058   14.3098 H       1  UNL1        0.1550
     40 C          63.0287   81.5668   11.7583 C.ar    1  UNL1        0.0769
     41 C          63.9189   82.2847   10.7878 C.ar    1  UNL1        0.0065
     42 C          64.2820   83.7208   11.0240 C.ar    1  UNL1        0.0015
     43 C          63.7549   84.4390   12.2308 C.ar    1  UNL1        0.0147
     44 C          62.8646   83.7210   13.2014 C.ar    1  UNL1        0.0506
     45 C          62.5015   82.2849   12.9652 C.ar    1  UNL1        0.0211
     46 C          62.6656   80.1307   11.5221 C.2     1  UNL1        0.3414
     47 O          62.4409   79.2125   12.6869 O.2     1  UNL1       -0.2449
     48 C          63.2706   78.3798    9.7005 C.3     1  UNL1        0.2560
     49 O          62.5271   79.6128   10.1212 O.3     1  UNL1       -0.4413
@<TRIPOS>BOND
     1    48    49    1
     2    49    46    1
     3    46    47    2
     4    46    40    1
     5    40    41   ar
     6    41    42   ar
     7    42    43   ar
     8    43    44   ar
     9    44    36    1
    10    36    37   am
    11    37    38    2
    12    37    35    1
    13    35    34    1
    14    34    28    1
    15    28    29   ar
    16    29    30   ar
    17    30    31   ar
    18    31     1    1
    19     1     2    1
    20     2     3    1
    21     3     4    1
    22     4     5    1
    23     5     6    1
    24     6     7    1
    25     7    11    1
    26    11    12    2
    27    11    13   am
    28    13    14    1
    29    14    15    1
    30    15    16    1
    31    16    19    1
    32    19    20    1
    33    20    21   ar
    34    21    22   ar
    35    22    23   ar
    36    23    26    1
    37    26    27    1
    38    23    24   ar
    39    24    25   ar
    40    16    17    1
    41    17    18    1
    42     7     8    1
    43     7     9    1
    44     5    10    1
    45    31    32   ar
    46    32    33   ar
    47    44    45   ar
    48    45    40   ar
    49    33    28   ar
    50     9     1    1
    51    10     1    1
    52     8     3    1
    53    18    13    1
    54    25    20   ar
    55    36    39    1
