@<TRIPOS>MOLECULE
*****
 37 40 0 0 0
SMALL
GASTEIGER

@<TRIPOS>ATOM
      1 C          63.3894   87.6039   12.5849 C.3     1  UNL1        0.0341
      2 C          62.4937   87.2772   11.4269 C.ar    1  UNL1        0.0141
      3 C          62.1767   85.8470   11.1041 C.ar    1  UNL1        0.1277
      4 N          61.2810   85.5203    9.9462 N.ar    1  UNL1       -0.2310
      5 C          60.7023   86.6237    9.1109 C.ar    1  UNL1        0.0828
      6 C          59.8066   86.2969    7.9529 C.ar    1  UNL1        0.0197
      7 C          59.2279   87.4003    7.1177 C.ar    1  UNL1        0.0082
      8 C          59.5449   88.8304    7.4404 C.ar    1  UNL1        0.0347
      9 BR         58.9662   89.9338    6.6051 Br      1  UNL1       -0.0490
     10 C          60.4406   89.1572    8.5984 C.ar    1  UNL1        0.0083
     11 C          61.0193   88.0538    9.4336 C.ar    1  UNL1        0.0223
     12 C          61.9150   88.3806   10.5916 C.ar    1  UNL1        0.0535
     13 N          62.7554   84.7436   11.9394 N.pl3   1  UNL1       -0.2935
     14 C          63.6126   83.7542   11.2072 C.3     1  UNL1        0.0921
     15 C          64.3265   82.5523   11.7510 C.3     1  UNL1        0.0215
     16 C          64.3595   82.0431   13.1616 C.3     1  UNL1        0.0018
     17 C          63.6869   82.6100   14.3766 C.3     1  UNL1        0.0018
     18 C          62.8150   83.8260   14.4811 C.3     1  UNL1        0.0215
     19 C          62.4004   84.7757   13.3964 C.3     1  UNL1        0.0921
     20 C          62.2320   89.8107   10.9144 C.2     1  UNL1        0.2457
     21 O          61.2876   90.6168   11.7559 O.2     1  UNL1       -0.2702
     22 N          63.4935   90.4348   10.3955 N.am    1  UNL1       -0.3005
     23 H          64.1134   89.9058    9.8431 H       1  UNL1        0.1497
     24 C          63.8105   91.8650   10.7182 C.3     1  UNL1        0.0940
     25 C          65.0920   92.2098   11.4174 C.3     1  UNL1        0.0431
     26 C          66.2653   92.7109   10.6288 C.ar    1  UNL1       -0.0103
     27 C          67.3601   91.7659   10.2308 C.ar    1  UNL1       -0.0034
     28 C          68.5335   92.2671    9.4420 C.ar    1  UNL1       -0.0003
     29 C          68.6121   93.7132    9.0513 C.ar    1  UNL1        0.0008
     30 C          67.5172   94.6581    9.4493 C.ar    1  UNL1        0.0111
     31 C          66.3439   94.1570   10.2380 C.ar    1  UNL1        0.0537
     32 CL         65.2490   95.1020   10.6360 Cl      1  UNL1       -0.0826
     33 C          65.2000   92.0535   12.9054 C.3     1  UNL1        0.0120
     34 C          64.7269   90.7912   13.5632 C.3     1  UNL1        0.0421
     35 C          63.8522   90.8619   14.7797 C.2     1  UNL1        0.0503
     36 O          62.6400   89.9845   14.8839 O.co2   1  UNL1       -0.5492
     37 O          64.1897   91.8099   15.8922 O.co2   1  UNL1       -0.5492
@<TRIPOS>UNITY_ATOM_ATTR
36 1
charge -1
@<TRIPOS>BOND
     1     1     2    1
     2     2     3   ar
     3     3    13    1
     4    13    14    1
     5    14    15    1
     6    15    16    1
     7    16    17    1
     8    17    18    1
     9    18    19    1
    10     3     4   ar
    11     4     5   ar
    12     5     6   ar
    13     6     7   ar
    14     7     8   ar
    15     8     9    1
    16     8    10   ar
    17    10    11   ar
    18    11    12   ar
    19    12    20    1
    20    20    21    2
    21    20    22   am
    22    22    24    1
    23    24    25    1
    24    25    33    1
    25    33    34    1
    26    34    35    1
    27    35    36   ar
    28    35    37   ar
    29    25    26    1
    30    26    27   ar
    31    27    28   ar
    32    28    29   ar
    33    29    30   ar
    34    30    31   ar
    35    31    32    1
    36    12     2   ar
    37    31    26   ar
    38    19    13    1
    39    11     5   ar
    40    22    23    1
@<TRIPOS>MOLECULE
*****
 37 40 0 0 0
SMALL
GASTEIGER

@<TRIPOS>ATOM
      1 C          63.3861   87.7132   12.5934 C.3     1  UNL1        0.0341
      2 C          62.4919   87.3559   11.4433 C.ar    1  UNL1        0.0141
      3 C          62.1647   85.9185   11.1661 C.ar    1  UNL1        0.1277
      4 N          61.2705   85.5611   10.0161 N.ar    1  UNL1       -0.2310
      5 C          60.7035   86.6411    9.1430 C.ar    1  UNL1        0.0828
      6 C          59.8094   86.2838    7.9930 C.ar    1  UNL1        0.0197
      7 C          59.2424   87.3638    7.1200 C.ar    1  UNL1        0.0082
      8 C          59.5697   88.8012    7.3972 C.ar    1  UNL1        0.0347
      9 BR         59.0027   89.8813    6.5241 Br      1  UNL1       -0.0490
     10 C          60.4638   89.1586    8.5472 C.ar    1  UNL1        0.0083
     11 C          61.0308   88.0785    9.4202 C.ar    1  UNL1        0.0223
     12 C          61.9250   88.4359   10.5703 C.ar    1  UNL1        0.0535
     13 N          62.7317   84.8384   12.0392 N.pl3   1  UNL1       -0.2935
     14 C          63.5824   83.8181   11.3426 C.3     1  UNL1        0.0921
     15 C          64.2845   82.6289   11.9280 C.3     1  UNL1        0.0215
     16 C          64.3093   82.1663   13.3547 C.3     1  UNL1        0.0018
     17 C          63.6381   82.7786   14.5482 C.3     1  UNL1        0.0018
     18 C          62.7764   84.0048   14.6099 C.3     1  UNL1        0.0215
     19 C          62.3729   84.9215   13.4932 C.3     1  UNL1        0.0921
     20 C          62.2522   89.8733   10.8474 C.2     1  UNL1        0.2457
     21 O          61.3062   90.7166   11.6497 O.2     1  UNL1       -0.2702
     22 N          63.5256   90.4673   10.3223 N.am    1  UNL1       -0.3005
     23 H          64.1465   89.9138    9.7957 H       1  UNL1        0.1497
     24 C          63.8528   91.9047   10.5994 C.3     1  UNL1        0.0940
     25 C          65.1366   92.2624   11.2877 C.3     1  UNL1        0.0431
     26 C          66.2845   92.8134   10.4947 C.ar    1  UNL1       -0.0103
     27 C          67.3727   91.8988   10.0158 C.ar    1  UNL1       -0.0034
     28 C          68.5206   92.4499    9.2228 C.ar    1  UNL1       -0.0003
     29 C          68.5802   93.9154    8.9088 C.ar    1  UNL1        0.0008
     30 C          67.4920   94.8299    9.3877 C.ar    1  UNL1        0.0111
     31 C          66.3441   94.2789   10.1806 C.ar    1  UNL1        0.0537
     32 CL         65.2559   95.1935   10.6595 Cl      1  UNL1       -0.0826
     33 C          65.2726   92.0691   12.7690 C.3     1  UNL1        0.0120
     34 C          66.2898   92.8589   13.5381 C.3     1  UNL1        0.0421
     35 C          67.5232   92.1848   14.0618 C.2     1  UNL1        0.0503
     36 O          67.6402   91.8647   15.5226 O.co2   1  UNL1       -0.5492
     37 O          68.6397   91.8307   13.1247 O.co2   1  UNL1       -0.5492
@<TRIPOS>UNITY_ATOM_ATTR
36 1
charge -1
@<TRIPOS>BOND
     1     1     2    1
     2     2     3   ar
     3     3    13    1
     4    13    14    1
     5    14    15    1
     6    15    16    1
     7    16    17    1
     8    17    18    1
     9    18    19    1
    10     3     4   ar
    11     4     5   ar
    12     5     6   ar
    13     6     7   ar
    14     7     8   ar
    15     8     9    1
    16     8    10   ar
    17    10    11   ar
    18    11    12   ar
    19    12    20    1
    20    20    21    2
    21    20    22   am
    22    22    24    1
    23    24    25    1
    24    25    33    1
    25    33    34    1
    26    34    35    1
    27    35    36   ar
    28    35    37   ar
    29    25    26    1
    30    26    27   ar
    31    27    28   ar
    32    28    29   ar
    33    29    30   ar
    34    30    31   ar
    35    31    32    1
    36    12     2   ar
    37    31    26   ar
    38    19    13    1
    39    11     5   ar
    40    22    23    1
@<TRIPOS>MOLECULE
*****
 37 40 0 0 0
SMALL
GASTEIGER

@<TRIPOS>ATOM
      1 C          63.2879   87.5531   12.6138 C.3     1  UNL1        0.0341
      2 C          62.4272   87.2229   11.4304 C.ar    1  UNL1        0.0141
      3 C          62.1670   85.7906   11.0687 C.ar    1  UNL1        0.1277
      4 N          61.3064   85.4604    9.8854 N.ar    1  UNL1       -0.2310
      5 C          60.7059   86.5625    9.0638 C.ar    1  UNL1        0.0828
      6 C          59.8453   86.2323    7.8805 C.ar    1  UNL1        0.0197
      7 C          59.2449   87.3344    7.0590 C.ar    1  UNL1        0.0082
      8 C          59.5051   88.7666    7.4208 C.ar    1  UNL1        0.0347
      9 BR         58.9047   89.8687    6.5992 Br      1  UNL1       -0.0490
     10 C          60.3657   89.0968    8.6040 C.ar    1  UNL1        0.0083
     11 C          60.9661   87.9948    9.4256 C.ar    1  UNL1        0.0223
     12 C          61.8268   88.3250   10.6089 C.ar    1  UNL1        0.0535
     13 N          62.7675   84.6886   11.8903 N.pl3   1  UNL1       -0.2935
     14 C          63.6238   83.7109   11.1413 C.3     1  UNL1        0.0921
     15 C          64.3563   82.5132   11.6691 C.3     1  UNL1        0.0215
     16 C          64.4135   81.9972   13.0765 C.3     1  UNL1        0.0018
     17 C          63.7522   82.5515   14.3034 C.3     1  UNL1        0.0018
     18 C          62.8705   83.7588   14.4261 C.3     1  UNL1        0.0215
     19 C          62.4322   84.7099   13.3521 C.3     1  UNL1        0.0921
     20 C          62.0871   89.7572   10.9707 C.2     1  UNL1        0.2457
     21 O          61.0491   90.5431   11.7157 O.2     1  UNL1       -0.2702
     22 N          63.3853   90.4036   10.5875 N.am    1  UNL1       -0.3005
     23 H          64.0666   89.8878   10.0985 H       1  UNL1        0.1497
     24 C          63.6455   91.8359   10.9492 C.3     1  UNL1        0.0940
     25 C          65.0448   92.2952   11.2340 C.3     1  UNL1        0.0431
     26 C          65.5404   92.3574   12.6484 C.ar    1  UNL1       -0.0103
     27 C          65.3782   91.1717   13.5528 C.ar    1  UNL1       -0.0034
     28 C          65.8739   91.2340   14.9672 C.ar    1  UNL1       -0.0003
     29 C          66.5318   92.4817   15.4771 C.ar    1  UNL1        0.0008
     30 C          66.6941   93.6674   14.5727 C.ar    1  UNL1        0.0111
     31 C          66.1985   93.6052   13.1584 C.ar    1  UNL1        0.0537
     32 CL         66.3607   94.7908   12.2540 Cl      1  UNL1       -0.0826
     33 C          65.9483   92.6924   10.1045 C.3     1  UNL1        0.0120
     34 C          67.3534   92.1703   10.0489 C.3     1  UNL1        0.0421
     35 C          68.3747   92.8557    9.1903 C.2     1  UNL1        0.0503
     36 O          69.0602   92.0991    8.0914 O.co2   1  UNL1       -0.5492
     37 O          68.7107   94.2977    9.4307 O.co2   1  UNL1       -0.5492
@<TRIPOS>UNITY_ATOM_ATTR
36 1
charge -1
@<TRIPOS>BOND
     1     1     2    1
     2     2     3   ar
     3     3    13    1
     4    13    14    1
     5    14    15    1
     6    15    16    1
     7    16    17    1
     8    17    18    1
     9    18    19    1
    10     3     4   ar
    11     4     5   ar
    12     5     6   ar
    13     6     7   ar
    14     7     8   ar
    15     8     9    1
    16     8    10   ar
    17    10    11   ar
    18    11    12   ar
    19    12    20    1
    20    20    21    2
    21    20    22   am
    22    22    24    1
    23    24    25    1
    24    25    33    1
    25    33    34    1
    26    34    35    1
    27    35    36   ar
    28    35    37   ar
    29    25    26    1
    30    26    27   ar
    31    27    28   ar
    32    28    29   ar
    33    29    30   ar
    34    30    31   ar
    35    31    32    1
    36    12     2   ar
    37    31    26   ar
    38    19    13    1
    39    11     5   ar
    40    22    23    1
@<TRIPOS>MOLECULE
*****
 37 40 0 0 0
SMALL
GASTEIGER

@<TRIPOS>ATOM
      1 C          63.6963   91.6239    9.7639 C.3     1  UNL1        0.0341
      2 C          64.0893   91.6411   11.2114 C.ar    1  UNL1        0.0141
      3 C          65.1887   92.5479   11.6793 C.ar    1  UNL1        0.1277
      4 N          65.5818   92.5651   13.1268 N.ar    1  UNL1       -0.2310
      5 C          64.8754   91.6755   14.1064 C.ar    1  UNL1        0.0828
      6 C          65.2684   91.6927   15.5539 C.ar    1  UNL1        0.0197
      7 C          64.5620   90.8031   16.5334 C.ar    1  UNL1        0.0082
      8 C          63.4626   89.8962   16.0655 C.ar    1  UNL1        0.0347
      9 BR         62.7562   89.0066   17.0451 Br      1  UNL1       -0.0490
     10 C          63.0696   89.8790   14.6180 C.ar    1  UNL1        0.0083
     11 C          63.7759   90.7687   13.6385 C.ar    1  UNL1        0.0223
     12 C          63.3829   90.7515   12.1910 C.ar    1  UNL1        0.0535
     13 N          65.8951   93.4376   10.6997 N.pl3   1  UNL1       -0.2935
     14 C          67.0275   92.8056    9.9458 C.3     1  UNL1        0.0921
     15 C          67.9201   93.4214    8.9095 C.3     1  UNL1        0.0215
     16 C          67.9009   94.8215    8.3712 C.3     1  UNL1        0.0018
     17 C          66.9843   95.9513    8.7363 C.3     1  UNL1        0.0018
     18 C          65.8605   95.9602    9.7298 C.3     1  UNL1        0.0215
     19 C          65.3758   94.8415   10.6036 C.3     1  UNL1        0.0921
     20 C          62.2835   89.8447   11.7230 C.2     1  UNL1        0.2457
     21 O          61.0098   90.4260   11.1848 O.2     1  UNL1       -0.2702
     22 N          62.4579   88.3564   11.7933 N.am    1  UNL1       -0.3005
     23 H          63.2938   87.9749   12.1466 H       1  UNL1        0.1497
     24 C          61.3584   87.4496   11.3254 C.3     1  UNL1        0.0940
     25 C          61.6474   86.3809   10.3133 C.3     1  UNL1        0.0431
     26 C          62.5131   85.2129   10.6824 C.ar    1  UNL1       -0.0103
     27 C          62.6021   84.7673   12.1119 C.ar    1  UNL1       -0.0034
     28 C          63.4678   83.5993   12.4810 C.ar    1  UNL1       -0.0003
     29 C          64.2446   82.8768   11.4205 C.ar    1  UNL1        0.0008
     30 C          64.1556   83.3223    9.9909 C.ar    1  UNL1        0.0111
     31 C          63.2899   84.4904    9.6219 C.ar    1  UNL1        0.0537
     32 CL         63.2009   84.9359    8.1923 Cl      1  UNL1       -0.0826
     33 C          61.0707   86.4802    8.9322 C.3     1  UNL1        0.0120
     34 C          60.6088   87.8067    8.4059 C.3     1  UNL1        0.0421
     35 C          59.3123   87.9067    7.6581 C.2     1  UNL1        0.0503
     36 O          59.0363   89.0996    6.7917 O.co2   1  UNL1       -0.5492
     37 O          58.2918   86.8137    7.7769 O.co2   1  UNL1       -0.5492
@<TRIPOS>UNITY_ATOM_ATTR
36 1
charge -1
@<TRIPOS>BOND
     1     1     2    1
     2     2     3   ar
     3     3    13    1
     4    13    14    1
     5    14    15    1
     6    15    16    1
     7    16    17    1
     8    17    18    1
     9    18    19    1
    10     3     4   ar
    11     4     5   ar
    12     5     6   ar
    13     6     7   ar
    14     7     8   ar
    15     8     9    1
    16     8    10   ar
    17    10    11   ar
    18    11    12   ar
    19    12    20    1
    20    20    21    2
    21    20    22   am
    22    22    24    1
    23    24    25    1
    24    25    33    1
    25    33    34    1
    26    34    35    1
    27    35    36   ar
    28    35    37   ar
    29    25    26    1
    30    26    27   ar
    31    27    28   ar
    32    28    29   ar
    33    29    30   ar
    34    30    31   ar
    35    31    32    1
    36    12     2   ar
    37    31    26   ar
    38    19    13    1
    39    11     5   ar
    40    22    23    1
@<TRIPOS>MOLECULE
*****
 37 40 0 0 0
SMALL
GASTEIGER

@<TRIPOS>ATOM
      1 C          64.0704   87.6680   13.4770 C.3     1  UNL1        0.0341
      2 C          63.2114   88.2830   12.4121 C.ar    1  UNL1        0.0141
      3 C          63.1637   89.7741   12.2553 C.ar    1  UNL1        0.1277
      4 N          62.3047   90.3891   11.1906 N.ar    1  UNL1       -0.2310
      5 C          61.4934   89.5132   10.2825 C.ar    1  UNL1        0.0828
      6 C          60.6344   90.1283    9.2177 C.ar    1  UNL1        0.0197
      7 C          59.8231   89.2523    8.3097 C.ar    1  UNL1        0.0082
      8 C          59.8708   87.7613    8.4665 C.ar    1  UNL1        0.0347
      9 BR         59.0594   86.8854    7.5585 Br      1  UNL1       -0.0490
     10 C          60.7297   87.1462    9.5313 C.ar    1  UNL1        0.0083
     11 C          61.5410   88.0222   10.4393 C.ar    1  UNL1        0.0223
     12 C          62.4001   87.4071   11.5041 C.ar    1  UNL1        0.0535
     13 N          63.9750   90.6500   13.1634 N.pl3   1  UNL1       -0.2935
     14 C          64.9798   91.5350   12.4871 C.3     1  UNL1        0.0921
     15 C          65.9320   92.5136   13.1079 C.3     1  UNL1        0.0215
     16 C          66.1146   92.8490   14.5585 C.3     1  UNL1        0.0018
     17 C          65.3902   92.2887   15.7464 C.3     1  UNL1        0.0018
     18 C          64.3042   91.2545   15.7772 C.3     1  UNL1        0.0215
     19 C          63.6743   90.5251   14.6276 C.3     1  UNL1        0.0921
     20 C          62.4477   85.9161   11.6609 C.2     1  UNL1        0.2457
     21 O          62.7721   85.0479   10.4815 O.2     1  UNL1       -0.2702
     22 N          62.1710   85.2932   12.9972 N.am    1  UNL1       -0.3005
     23 H          61.9581   85.8631   13.7713 H       1  UNL1        0.1497
     24 C          62.2187   83.8022   13.1540 C.3     1  UNL1        0.0940
     25 C          63.3953   83.0307   12.6342 C.3     1  UNL1        0.0431
     26 C          63.1840   81.7167   11.9422 C.ar    1  UNL1       -0.0103
     27 C          63.4438   81.5941   10.4700 C.ar    1  UNL1       -0.0034
     28 C          63.2325   80.2800    9.7780 C.ar    1  UNL1       -0.0003
     29 C          62.7614   79.0887   10.5583 C.ar    1  UNL1        0.0008
     30 C          62.5017   79.2114   12.0305 C.ar    1  UNL1        0.0111
     31 C          62.7130   80.5253   12.7225 C.ar    1  UNL1        0.0537
     32 CL         62.4532   80.6479   14.1947 Cl      1  UNL1       -0.0826
     33 C          64.7832   83.5730   12.8063 C.3     1  UNL1        0.0120
     34 C          65.1261   84.3844   14.0204 C.3     1  UNL1        0.0421
     35 C          64.3522   84.1961   15.2915 C.2     1  UNL1        0.0503
     36 O          64.2416   82.8329   15.9073 O.co2   1  UNL1       -0.5492
     37 O          63.6888   85.3712   15.9467 O.co2   1  UNL1       -0.5492
@<TRIPOS>UNITY_ATOM_ATTR
36 1
charge -1
@<TRIPOS>BOND
     1     1     2    1
     2     2     3   ar
     3     3    13    1
     4    13    14    1
     5    14    15    1
     6    15    16    1
     7    16    17    1
     8    17    18    1
     9    18    19    1
    10     3     4   ar
    11     4     5   ar
    12     5     6   ar
    13     6     7   ar
    14     7     8   ar
    15     8     9    1
    16     8    10   ar
    17    10    11   ar
    18    11    12   ar
    19    12    20    1
    20    20    21    2
    21    20    22   am
    22    22    24    1
    23    24    25    1
    24    25    33    1
    25    33    34    1
    26    34    35    1
    27    35    36   ar
    28    35    37   ar
    29    25    26    1
    30    26    27   ar
    31    27    28   ar
    32    28    29   ar
    33    29    30   ar
    34    30    31   ar
    35    31    32    1
    36    12     2   ar
    37    31    26   ar
    38    19    13    1
    39    11     5   ar
    40    22    23    1
@<TRIPOS>MOLECULE
*****
 37 40 0 0 0
SMALL
GASTEIGER

@<TRIPOS>ATOM
      1 C          64.0571   87.9133   13.4948 C.3     1  UNL1        0.0341
      2 C          63.2394   88.4788   12.3716 C.ar    1  UNL1        0.0141
      3 C          63.2742   89.9510   12.0859 C.ar    1  UNL1        0.1277
      4 N          62.4566   90.5166   10.9627 N.ar    1  UNL1       -0.2310
      5 C          61.6041   89.6100   10.1251 C.ar    1  UNL1        0.0828
      6 C          60.7865   90.1756    9.0019 C.ar    1  UNL1        0.0197
      7 C          59.9341   89.2691    8.1644 C.ar    1  UNL1        0.0082
      8 C          59.8993   87.7969    8.4501 C.ar    1  UNL1        0.0347
      9 BR         59.0467   86.8904    7.6125 Br      1  UNL1       -0.0490
     10 C          60.7169   87.2313    9.5733 C.ar    1  UNL1        0.0083
     11 C          61.5693   88.1379   10.4108 C.ar    1  UNL1        0.0223
     12 C          62.3870   87.5723   11.5341 C.ar    1  UNL1        0.0535
     13 N          64.1268   90.8575   12.9235 N.pl3   1  UNL1       -0.2935
     14 C          63.9994   90.6827   14.4078 C.3     1  UNL1        0.0921
     15 C          64.7077   91.4261   15.5013 C.3     1  UNL1        0.0215
     16 C          65.7183   92.5281   15.3804 C.3     1  UNL1        0.0018
     17 C          66.2701   93.1586   14.1363 C.3     1  UNL1        0.0018
     18 C          65.9477   92.8431   12.7058 C.3     1  UNL1        0.0215
     19 C          64.9938   91.8189   12.1660 C.3     1  UNL1        0.0921
     20 C          62.3521   86.1002   11.8197 C.2     1  UNL1        0.2457
     21 O          61.1616   85.4970   12.5043 O.2     1  UNL1       -0.2702
     22 N          63.5079   85.2312   11.4208 N.am    1  UNL1       -0.3005
     23 H          64.2893   85.6271   10.9715 H       1  UNL1        0.1497
     24 C          63.4731   83.7591   11.7064 C.3     1  UNL1        0.0940
     25 C          63.8623   83.2487   13.0622 C.3     1  UNL1        0.0431
     26 C          63.6009   84.0830   14.2810 C.ar    1  UNL1       -0.0103
     27 C          62.2436   84.0737   14.9193 C.ar    1  UNL1       -0.0034
     28 C          61.9822   84.9081   16.1382 C.ar    1  UNL1       -0.0003
     29 C          63.0783   85.7517   16.7187 C.ar    1  UNL1        0.0008
     30 C          64.4356   85.7610   16.0804 C.ar    1  UNL1        0.0111
     31 C          64.6970   84.9267   14.8616 C.ar    1  UNL1        0.0537
     32 CL         66.0544   84.9360   14.2233 Cl      1  UNL1       -0.0826
     33 C          64.5129   81.9041   13.1991 C.3     1  UNL1        0.0120
     34 C          63.7633   80.7692   13.8314 C.3     1  UNL1        0.0421
     35 C          62.4652   80.3055   13.2396 C.2     1  UNL1        0.0503
     36 O          61.1659   80.7186   13.8649 O.co2   1  UNL1       -0.5492
     37 O          62.4666   79.4287   12.0225 O.co2   1  UNL1       -0.5492
@<TRIPOS>UNITY_ATOM_ATTR
36 1
charge -1
@<TRIPOS>BOND
     1     1     2    1
     2     2     3   ar
     3     3    13    1
     4    13    14    1
     5    14    15    1
     6    15    16    1
     7    16    17    1
     8    17    18    1
     9    18    19    1
    10     3     4   ar
    11     4     5   ar
    12     5     6   ar
    13     6     7   ar
    14     7     8   ar
    15     8     9    1
    16     8    10   ar
    17    10    11   ar
    18    11    12   ar
    19    12    20    1
    20    20    21    2
    21    20    22   am
    22    22    24    1
    23    24    25    1
    24    25    33    1
    25    33    34    1
    26    34    35    1
    27    35    36   ar
    28    35    37   ar
    29    25    26    1
    30    26    27   ar
    31    27    28   ar
    32    28    29   ar
    33    29    30   ar
    34    30    31   ar
    35    31    32    1
    36    12     2   ar
    37    31    26   ar
    38    19    13    1
    39    11     5   ar
    40    22    23    1
@<TRIPOS>MOLECULE
*****
 37 40 0 0 0
SMALL
GASTEIGER

@<TRIPOS>ATOM
      1 C          64.5623   87.8869   14.2292 C.3     1  UNL1        0.0341
      2 C          63.6792   88.4629   13.1622 C.ar    1  UNL1        0.0141
      3 C          63.5416   89.9502   13.0247 C.ar    1  UNL1        0.1277
      4 N          62.6585   90.5263   11.9578 N.ar    1  UNL1       -0.2310
      5 C          61.9130   89.6149   11.0284 C.ar    1  UNL1        0.0828
      6 C          61.0299   90.1910    9.9614 C.ar    1  UNL1        0.0197
      7 C          60.2845   89.2797    9.0321 C.ar    1  UNL1        0.0082
      8 C          60.4220   87.7923    9.1697 C.ar    1  UNL1        0.0347
      9 BR         59.6765   86.8810    8.2402 Br      1  UNL1       -0.0490
     10 C          61.3051   87.2163   10.2366 C.ar    1  UNL1        0.0083
     11 C          62.0506   88.1276   11.1659 C.ar    1  UNL1        0.0223
     12 C          62.9337   87.5516   12.2329 C.ar    1  UNL1        0.0535
     13 N          64.2871   90.8616   13.9541 N.pl3   1  UNL1       -0.2935
     14 C          65.4380   91.6090   13.3484 C.3     1  UNL1        0.0921
     15 C          66.3692   92.5844   14.0052 C.3     1  UNL1        0.0215
     16 C          66.3795   93.0533   15.4301 C.3     1  UNL1        0.0018
     17 C          65.4612   92.6625   16.5499 C.3     1  UNL1        0.0018
     18 C          64.3057   91.7064   16.5215 C.3     1  UNL1        0.0215
     19 C          63.7832   90.9049   15.3662 C.3     1  UNL1        0.0921
     20 C          63.0713   86.0643   12.3705 C.2     1  UNL1        0.2457
     21 O          62.0835   85.1547   11.7020 O.2     1  UNL1       -0.2702
     22 N          64.1968   85.4866   13.1765 N.am    1  UNL1       -0.3005
     23 H          64.8451   86.0836   13.6153 H       1  UNL1        0.1497
     24 C          64.3344   83.9992   13.3141 C.3     1  UNL1        0.0940
     25 C          63.1111   83.1427   13.4552 C.3     1  UNL1        0.0431
     26 C          62.9797   81.8843   12.6496 C.ar    1  UNL1       -0.0103
     27 C          62.4890   80.6250   13.3003 C.ar    1  UNL1       -0.0034
     28 C          62.3576   79.3665   12.4946 C.ar    1  UNL1       -0.0003
     29 C          62.7170   79.3674   11.0383 C.ar    1  UNL1        0.0008
     30 C          63.2077   80.6267   10.3876 C.ar    1  UNL1        0.0111
     31 C          63.3391   81.8851   11.1932 C.ar    1  UNL1        0.0537
     32 CL         63.8298   83.1444   10.5425 Cl      1  UNL1       -0.0826
     33 C          62.0192   83.5446   14.4019 C.3     1  UNL1        0.0120
     34 C          62.3275   83.7616   15.8537 C.3     1  UNL1        0.0421
     35 C          62.5307   85.1523   16.3776 C.2     1  UNL1        0.0503
     36 O          63.9110   85.7362   16.4396 O.co2   1  UNL1       -0.5492
     37 O          61.3536   85.9592   16.8397 O.co2   1  UNL1       -0.5492
@<TRIPOS>UNITY_ATOM_ATTR
36 1
charge -1
@<TRIPOS>BOND
     1     1     2    1
     2     2     3   ar
     3     3    13    1
     4    13    14    1
     5    14    15    1
     6    15    16    1
     7    16    17    1
     8    17    18    1
     9    18    19    1
    10     3     4   ar
    11     4     5   ar
    12     5     6   ar
    13     6     7   ar
    14     7     8   ar
    15     8     9    1
    16     8    10   ar
    17    10    11   ar
    18    11    12   ar
    19    12    20    1
    20    20    21    2
    21    20    22   am
    22    22    24    1
    23    24    25    1
    24    25    33    1
    25    33    34    1
    26    34    35    1
    27    35    36   ar
    28    35    37   ar
    29    25    26    1
    30    26    27   ar
    31    27    28   ar
    32    28    29   ar
    33    29    30   ar
    34    30    31   ar
    35    31    32    1
    36    12     2   ar
    37    31    26   ar
    38    19    13    1
    39    11     5   ar
    40    22    23    1
@<TRIPOS>MOLECULE
*****
 37 40 0 0 0
SMALL
GASTEIGER

@<TRIPOS>ATOM
      1 C          62.4705   88.6000   12.6136 C.3     1  UNL1        0.0341
      2 C          63.4621   89.6692   12.9654 C.ar    1  UNL1        0.0141
      3 C          64.2039   89.6050   14.2675 C.ar    1  UNL1        0.1277
      4 N          65.1955   90.6740   14.6193 N.ar    1  UNL1       -0.2310
      5 C          65.4454   91.8074   13.6689 C.ar    1  UNL1        0.0828
      6 C          66.4370   92.8764   14.0207 C.ar    1  UNL1        0.0197
      7 C          66.6868   94.0097   13.0703 C.ar    1  UNL1        0.0082
      8 C          65.9449   94.0739   11.7681 C.ar    1  UNL1        0.0347
      9 BR         66.1948   95.2073   10.8177 Br      1  UNL1       -0.0490
     10 C          64.9533   93.0049   11.4164 C.ar    1  UNL1        0.0083
     11 C          64.7035   91.8716   12.3667 C.ar    1  UNL1        0.0223
     12 C          63.7119   90.8024   12.0150 C.ar    1  UNL1        0.0535
     13 N          63.9541   88.4716   15.2179 N.pl3   1  UNL1       -0.2935
     14 C          63.2111   88.8256   16.4719 C.3     1  UNL1        0.0921
     15 C          62.8108   87.9297   17.6064 C.3     1  UNL1        0.0215
     16 C          63.0546   86.4583   17.7669 C.3     1  UNL1        0.0018
     17 C          63.7589   85.5196   16.8328 C.3     1  UNL1        0.0018
     18 C          64.3934   85.8204   15.5073 C.3     1  UNL1        0.0215
     19 C          64.4803   87.1342   14.7885 C.3     1  UNL1        0.0921
     20 C          62.9701   90.8667   10.7128 C.2     1  UNL1        0.2457
     21 O          63.6039   91.5186    9.5199 O.2     1  UNL1       -0.2702
     22 N          61.5943   90.2788   10.6036 N.am    1  UNL1       -0.3005
     23 H          61.1783   89.8509   11.3866 H       1  UNL1        0.1497
     24 C          60.8525   90.3430    9.3015 C.3     1  UNL1        0.0940
     25 C          60.3852   89.0798    8.6414 C.3     1  UNL1        0.0431
     26 C          60.9353   87.7557    9.0820 C.ar    1  UNL1       -0.0103
     27 C          61.8588   86.9900    8.1814 C.ar    1  UNL1       -0.0034
     28 C          62.4089   85.6659    8.6220 C.ar    1  UNL1       -0.0003
     29 C          62.0355   85.1074    9.9631 C.ar    1  UNL1        0.0008
     30 C          61.1120   85.8730   10.8637 C.ar    1  UNL1        0.0111
     31 C          60.5619   87.1971   10.4232 C.ar    1  UNL1        0.0537
     32 CL         59.6385   87.9627   11.3237 Cl      1  UNL1       -0.0826
     33 C          59.3679   89.1406    7.5408 C.3     1  UNL1        0.0120
     34 C          59.7358   89.7292    6.2111 C.3     1  UNL1        0.0421
     35 C          58.8625   90.7771    5.5874 C.2     1  UNL1        0.0503
     36 O          57.3732   90.7076    5.7521 O.co2   1  UNL1       -0.5492
     37 O          59.4785   91.8947    4.7988 O.co2   1  UNL1       -0.5492
@<TRIPOS>UNITY_ATOM_ATTR
36 1
charge -1
@<TRIPOS>BOND
     1     1     2    1
     2     2     3   ar
     3     3    13    1
     4    13    14    1
     5    14    15    1
     6    15    16    1
     7    16    17    1
     8    17    18    1
     9    18    19    1
    10     3     4   ar
    11     4     5   ar
    12     5     6   ar
    13     6     7   ar
    14     7     8   ar
    15     8     9    1
    16     8    10   ar
    17    10    11   ar
    18    11    12   ar
    19    12    20    1
    20    20    21    2
    21    20    22   am
    22    22    24    1
    23    24    25    1
    24    25    33    1
    25    33    34    1
    26    34    35    1
    27    35    36   ar
    28    35    37   ar
    29    25    26    1
    30    26    27   ar
    31    27    28   ar
    32    28    29   ar
    33    29    30   ar
    34    30    31   ar
    35    31    32    1
    36    12     2   ar
    37    31    26   ar
    38    19    13    1
    39    11     5   ar
    40    22    23    1
