@<TRIPOS>MOLECULE
*****
 26 29 0 0 0
SMALL
GASTEIGER

@<TRIPOS>ATOM
      1 C          65.8782   94.6545   11.1062 C.2     1  UNL1        0.3610
      2 N          65.0181   93.4582   10.8249 N.2     1  UNL1       -0.0419
      3 C          64.8963   92.3654   11.8452 C.2     1  UNL1        0.1922
      4 C          65.6346   92.4690   13.1469 C.3     1  UNL1        0.2225
      5 S          65.3235   91.2441   13.9549 S.3     1  UNL1       -0.0944
      6 C          64.3930   90.3835   13.1526 C.ar    1  UNL1        0.0294
      7 C          63.7521   89.0584   13.4409 C.ar    1  UNL1        0.0063
      8 C          62.8471   88.4263   12.4254 C.ar    1  UNL1        0.0005
      9 C          62.5831   89.1193   11.1215 C.ar    1  UNL1        0.0001
     10 C          63.2240   90.4444   10.8332 C.ar    1  UNL1        0.0039
     11 C          64.1290   91.0765   11.8488 C.ar    1  UNL1        0.0459
     12 C          66.4946   93.6654   13.4282 C.2     1  UNL1        0.3698
     13 O          67.2329   93.7690   14.7298 O.2     1  UNL1       -0.2414
     14 N          66.6165   94.7581   12.4079 N.am    1  UNL1        0.0305
     15 C          61.6781   88.4871   10.1060 C.ar    1  UNL1        0.0002
     16 C          61.7249   87.0052    9.8789 C.ar    1  UNL1        0.0031
     17 C          60.8199   86.3730    8.8634 C.ar    1  UNL1        0.0366
     18 C          59.8680   87.2228    8.0748 C.ar    1  UNL1        0.1337
     19 O          58.9630   86.5907    7.0593 O.3     1  UNL1       -0.5055
     20 C          59.8212   88.7048    8.3019 C.ar    1  UNL1        0.0366
     21 C          60.7262   89.3369    9.3174 C.ar    1  UNL1        0.0031
     22 H          58.9923   85.6649    6.9175 H       1  UNL1        0.2922
     23 C          66.0000   95.7473   10.0858 C.3     1  UNL1        0.1955
     24 C          68.0034   94.5080    8.9901 C.3     1  UNL1        0.0901
     25 N          67.1011   95.7037    9.0681 N.3     1  UNL1       -0.2599
     26 C          67.2998   96.8558    8.1284 C.3     1  UNL1        0.0901
@<TRIPOS>BOND
     1    24    25    1
     2    25    26    1
     3    25    23    1
     4    23     1    1
     5     1     2    1
     6     2     3    2
     7     3     4    1
     8     4     5    1
     9     5     6    1
    10     6     7   ar
    11     7     8   ar
    12     8     9   ar
    13     9    15    1
    14    15    16   ar
    15    16    17   ar
    16    17    18   ar
    17    18    19    1
    18    18    20   ar
    19    20    21   ar
    20     9    10   ar
    21    10    11   ar
    22     4    12    1
    23    12    13    2
    24    12    14    1
    25    14     1    2
    26    11     3    1
    27    11     6   ar
    28    21    15   ar
    29    19    22    1
@<TRIPOS>MOLECULE
*****
 26 29 0 0 0
SMALL
GASTEIGER

@<TRIPOS>ATOM
      1 C          62.4296   85.2360   12.3284 C.2     1  UNL1        0.3610
      2 N          63.0744   86.5602   12.6126 N.2     1  UNL1       -0.0419
      3 C          62.8053   87.7331   11.7171 C.2     1  UNL1        0.1922
      4 C          61.8913   87.5817   10.5374 C.3     1  UNL1        0.2225
      5 S          61.8152   88.9060    9.8371 S.3     1  UNL1       -0.0944
      6 C          62.6821   89.8759   10.5841 C.ar    1  UNL1        0.0294
      7 C          62.9933   91.3254   10.3564 C.ar    1  UNL1        0.0063
      8 C          63.9165   92.0500   11.2905 C.ar    1  UNL1        0.0005
      9 C          64.5284   91.3251   12.4524 C.ar    1  UNL1        0.0001
     10 C          64.2172   89.8755   12.6801 C.ar    1  UNL1        0.0039
     11 C          63.2940   89.1509   11.7460 C.ar    1  UNL1        0.0459
     12 C          61.2465   86.2575   10.2532 C.2     1  UNL1        0.3698
     13 O          60.3326   86.1061    9.0734 O.2     1  UNL1       -0.2414
     14 N          61.5157   85.0847   11.1487 N.am    1  UNL1        0.0305
     15 C          65.4516   92.0497   13.3866 C.ar    1  UNL1        0.0002
     16 C          65.8201   91.4345   14.7040 C.ar    1  UNL1        0.0031
     17 C          66.7433   92.1591   15.6382 C.ar    1  UNL1        0.0366
     18 C          67.2979   93.4991   15.2549 C.ar    1  UNL1        0.1337
     19 O          68.2211   94.2237   16.1891 O.3     1  UNL1       -0.5055
     20 C          66.9294   94.1143   13.9374 C.ar    1  UNL1        0.0366
     21 C          66.0062   93.3897   13.0033 C.ar    1  UNL1        0.0031
     22 H          68.4512   93.8394   17.0120 H       1  UNL1        0.2922
     23 C          62.6988   84.0631   13.2240 C.3     1  UNL1        0.1955
     24 C          62.2506   81.5186   12.9516 C.3     1  UNL1        0.0901
     25 N          63.0669   82.7355   12.6309 N.3     1  UNL1       -0.2599
     26 C          64.2512   82.6247   11.7171 C.3     1  UNL1        0.0901
@<TRIPOS>BOND
     1    24    25    1
     2    25    26    1
     3    25    23    1
     4    23     1    1
     5     1     2    1
     6     2     3    2
     7     3     4    1
     8     4     5    1
     9     5     6    1
    10     6     7   ar
    11     7     8   ar
    12     8     9   ar
    13     9    15    1
    14    15    16   ar
    15    16    17   ar
    16    17    18   ar
    17    18    19    1
    18    18    20   ar
    19    20    21   ar
    20     9    10   ar
    21    10    11   ar
    22     4    12    1
    23    12    13    2
    24    12    14    1
    25    14     1    2
    26    11     3    1
    27    11     6   ar
    28    21    15   ar
    29    19    22    1
@<TRIPOS>MOLECULE
*****
 26 29 0 0 0
SMALL
GASTEIGER

@<TRIPOS>ATOM
      1 C          62.6538   89.5971   11.6417 C.2     1  UNL1        0.3610
      2 N          62.7610   88.1028   11.7164 N.2     1  UNL1       -0.0419
      3 C          63.3885   87.4549   12.9149 C.2     1  UNL1        0.1922
      4 C          63.9088   88.3013   14.0387 C.3     1  UNL1        0.2225
      5 S          64.4730   87.3866   15.0850 S.3     1  UNL1       -0.0944
      6 C          64.3014   85.9748   14.6080 C.ar    1  UNL1        0.0294
      7 C          64.6689   84.6564   15.2216 C.ar    1  UNL1        0.0063
      8 C          64.3661   83.3801   14.4940 C.ar    1  UNL1        0.0005
      9 C          63.6958   83.4224   13.1527 C.ar    1  UNL1        0.0001
     10 C          63.3283   84.7408   12.5391 C.ar    1  UNL1        0.0039
     11 C          63.6311   86.0171   13.2668 C.ar    1  UNL1        0.0459
     12 C          63.8016   89.7956   13.9639 C.2     1  UNL1        0.3698
     13 O          64.3220   90.6420   15.0877 O.2     1  UNL1       -0.2414
     14 N          63.1741   90.4435   12.7654 N.am    1  UNL1        0.0305
     15 C          63.3929   82.1460   12.4251 C.ar    1  UNL1        0.0002
     16 C          62.9041   80.9480   13.1839 C.ar    1  UNL1        0.0031
     17 C          62.6013   79.6717   12.4562 C.ar    1  UNL1        0.0366
     18 C          62.7873   79.5935   10.9699 C.ar    1  UNL1        0.1337
     19 O          62.4845   78.3172   10.2422 O.3     1  UNL1       -0.5055
     20 C          63.2762   80.7916   10.2111 C.ar    1  UNL1        0.0366
     21 C          63.5790   82.0678   10.9388 C.ar    1  UNL1        0.0031
     22 H          62.1792   77.5688   10.7162 H       1  UNL1        0.2922
     23 C          62.0262   90.2450   10.4431 C.3     1  UNL1        0.1955
     24 C          59.5441   90.5773   11.1349 C.3     1  UNL1        0.0901
     25 N          60.5641   90.0548   10.1672 N.3     1  UNL1       -0.2599
     26 C          60.1221   89.3422    8.9236 C.3     1  UNL1        0.0901
@<TRIPOS>BOND
     1    24    25    1
     2    25    26    1
     3    25    23    1
     4    23     1    1
     5     1     2    1
     6     2     3    2
     7     3     4    1
     8     4     5    1
     9     5     6    1
    10     6     7   ar
    11     7     8   ar
    12     8     9   ar
    13     9    15    1
    14    15    16   ar
    15    16    17   ar
    16    17    18   ar
    17    18    19    1
    18    18    20   ar
    19    20    21   ar
    20     9    10   ar
    21    10    11   ar
    22     4    12    1
    23    12    13    2
    24    12    14    1
    25    14     1    2
    26    11     3    1
    27    11     6   ar
    28    21    15   ar
    29    19    22    1
@<TRIPOS>MOLECULE
*****
 26 29 0 0 0
SMALL
GASTEIGER

@<TRIPOS>ATOM
      1 C          64.1909   90.9789   12.9834 C.2     1  UNL1        0.3610
      2 N          64.0277   89.4919   12.8729 N.2     1  UNL1       -0.0419
      3 C          63.8062   88.6679   14.1066 C.2     1  UNL1        0.1922
      4 C          63.7479   89.3310   15.4508 C.3     1  UNL1        0.2225
      5 S          63.5187   88.2669   16.4829 S.3     1  UNL1       -0.0944
      6 C          63.4353   86.9463   15.7765 C.ar    1  UNL1        0.0294
      7 C          63.2205   85.5501   16.2809 C.ar    1  UNL1        0.0063
      8 C          63.1835   84.4017   15.3166 C.ar    1  UNL1        0.0005
      9 C          63.3612   84.6496   13.8479 C.ar    1  UNL1        0.0001
     10 C          63.5760   86.0458   13.3436 C.ar    1  UNL1        0.0039
     11 C          63.6130   87.1941   14.3078 C.ar    1  UNL1        0.0459
     12 C          63.9111   90.8180   15.5613 C.2     1  UNL1        0.3698
     13 O          63.8528   91.4810   16.9056 O.2     1  UNL1       -0.2414
     14 N          64.1326   91.6420   14.3277 N.am    1  UNL1        0.0305
     15 C          63.3241   83.5011   12.8836 C.ar    1  UNL1        0.0002
     16 C          63.9485   83.6405   11.5270 C.ar    1  UNL1        0.0031
     17 C          63.9115   82.4921   10.5627 C.ar    1  UNL1        0.0366
     18 C          63.2500   81.2043   10.9551 C.ar    1  UNL1        0.1337
     19 O          63.2129   80.0559    9.9909 O.3     1  UNL1       -0.5055
     20 C          62.6255   81.0650   12.3119 C.ar    1  UNL1        0.0366
     21 C          62.6626   82.2134   13.2761 C.ar    1  UNL1        0.0031
     22 H          63.6029   80.1429    9.1434 H       1  UNL1        0.2922
     23 C          64.4124   91.8029   11.7497 C.3     1  UNL1        0.1955
     24 C          66.8474   92.3853   12.4434 C.3     1  UNL1        0.0901
     25 N          65.6130   92.6966   11.6502 N.3     1  UNL1       -0.2599
     26 C          65.5791   93.9015   10.7575 C.3     1  UNL1        0.0901
@<TRIPOS>BOND
     1    24    25    1
     2    25    26    1
     3    25    23    1
     4    23     1    1
     5     1     2    1
     6     2     3    2
     7     3     4    1
     8     4     5    1
     9     5     6    1
    10     6     7   ar
    11     7     8   ar
    12     8     9   ar
    13     9    15    1
    14    15    16   ar
    15    16    17   ar
    16    17    18   ar
    17    18    19    1
    18    18    20   ar
    19    20    21   ar
    20     9    10   ar
    21    10    11   ar
    22     4    12    1
    23    12    13    2
    24    12    14    1
    25    14     1    2
    26    11     3    1
    27    11     6   ar
    28    21    15   ar
    29    19    22    1
@<TRIPOS>MOLECULE
*****
 26 29 0 0 0
SMALL
GASTEIGER

@<TRIPOS>ATOM
      1 C          63.8592   84.9797   14.2576 C.2     1  UNL1        0.3610
      2 N          64.1604   86.4048   13.8992 N.2     1  UNL1       -0.0419
      3 C          63.8820   87.5009   14.8845 C.2     1  UNL1        0.1922
      4 C          63.3023   87.1720   16.2283 C.3     1  UNL1        0.2225
      5 S          63.1356   88.4547   16.9877 S.3     1  UNL1       -0.0944
      6 C          63.6123   89.5764   16.1133 C.ar    1  UNL1        0.0294
      7 C          63.6859   91.0584   16.3328 C.ar    1  UNL1        0.0063
      8 C          64.2208   91.9509   15.2524 C.ar    1  UNL1        0.0005
      9 C          64.6821   91.3614   13.9525 C.ar    1  UNL1        0.0001
     10 C          64.6084   89.8794   13.7330 C.ar    1  UNL1        0.0039
     11 C          64.0736   88.9869   14.8134 C.ar    1  UNL1        0.0459
     12 C          63.0011   85.7469   16.5868 C.2     1  UNL1        0.3698
     13 O          62.4214   85.4180   17.9305 O.2     1  UNL1       -0.2414
     14 N          63.2796   84.6508   15.6014 N.am    1  UNL1        0.0305
     15 C          65.2170   92.2540   12.8721 C.ar    1  UNL1        0.0002
     16 C          64.8601   91.9932   11.4387 C.ar    1  UNL1        0.0031
     17 C          65.3950   92.8858   10.3583 C.ar    1  UNL1        0.0366
     18 C          66.2868   94.0391   10.7113 C.ar    1  UNL1        0.1337
     19 O          66.8217   94.9317    9.6310 O.3     1  UNL1       -0.5055
     20 C          66.6436   94.2999   12.1448 C.ar    1  UNL1        0.0366
     21 C          66.1087   93.4073   13.2251 C.ar    1  UNL1        0.0031
     22 H          66.5988   94.7688    8.7356 H       1  UNL1        0.2922
     23 C          64.1377   83.8835   13.2722 C.3     1  UNL1        0.1955
     24 C          62.4908   82.0795   12.3872 C.3     1  UNL1        0.0901
     25 N          63.0748   83.4586   12.3028 N.3     1  UNL1       -0.2599
     26 C          62.5960   84.4126   11.2491 C.3     1  UNL1        0.0901
@<TRIPOS>BOND
     1    24    25    1
     2    25    26    1
     3    25    23    1
     4    23     1    1
     5     1     2    1
     6     2     3    2
     7     3     4    1
     8     4     5    1
     9     5     6    1
    10     6     7   ar
    11     7     8   ar
    12     8     9   ar
    13     9    15    1
    14    15    16   ar
    15    16    17   ar
    16    17    18   ar
    17    18    19    1
    18    18    20   ar
    19    20    21   ar
    20     9    10   ar
    21    10    11   ar
    22     4    12    1
    23    12    13    2
    24    12    14    1
    25    14     1    2
    26    11     3    1
    27    11     6   ar
    28    21    15   ar
    29    19    22    1
@<TRIPOS>MOLECULE
*****
 26 29 0 0 0
SMALL
GASTEIGER

@<TRIPOS>ATOM
      1 C          64.2793   84.2236   13.7235 C.2     1  UNL1        0.3610
      2 N          64.4885   85.7071   13.6490 N.2     1  UNL1       -0.0419
      3 C          64.0047   86.5895   14.7612 C.2     1  UNL1        0.1922
      4 C          63.3117   85.9885   15.9480 C.3     1  UNL1        0.2225
      5 S          62.9467   87.1019   16.8846 S.3     1  UNL1       -0.0944
      6 C          63.4142   88.3911   16.2766 C.ar    1  UNL1        0.0294
      7 C          63.3290   89.8123   16.7484 C.ar    1  UNL1        0.0063
      8 C          63.8976   90.9169   15.9079 C.ar    1  UNL1        0.0005
      9 C          64.5515   90.6002   14.5956 C.ar    1  UNL1        0.0001
     10 C          64.6367   89.1790   14.1238 C.ar    1  UNL1        0.0039
     11 C          64.0681   88.0744   14.9643 C.ar    1  UNL1        0.0459
     12 C          63.1024   84.5050   16.0226 C.2     1  UNL1        0.3698
     13 O          62.4094   83.9040   17.2093 O.2     1  UNL1       -0.2414
     14 N          63.5862   83.6226   14.9103 N.am    1  UNL1        0.0305
     15 C          65.1201   91.7049   13.7551 C.ar    1  UNL1        0.0002
     16 C          66.0425   92.7159   14.3693 C.ar    1  UNL1        0.0031
     17 C          66.6111   93.8206   13.5288 C.ar    1  UNL1        0.0366
     18 C          66.2574   93.9142   12.0741 C.ar    1  UNL1        0.1337
     19 O          66.8260   95.0188   11.2336 O.3     1  UNL1       -0.5055
     20 C          65.3350   92.9032   11.4599 C.ar    1  UNL1        0.0366
     21 C          64.7664   91.7986   12.3004 C.ar    1  UNL1        0.0031
     22 H          67.4022   95.6503   11.6172 H       1  UNL1        0.2922
     23 C          64.7631   83.3411   12.6112 C.3     1  UNL1        0.1955
     24 C          62.7664   81.8496   11.8774 C.3     1  UNL1        0.0901
     25 N          63.8079   82.8786   11.5511 N.3     1  UNL1       -0.2599
     26 C          63.8942   83.4451   10.1650 C.3     1  UNL1        0.0901
@<TRIPOS>BOND
     1    24    25    1
     2    25    26    1
     3    25    23    1
     4    23     1    1
     5     1     2    1
     6     2     3    2
     7     3     4    1
     8     4     5    1
     9     5     6    1
    10     6     7   ar
    11     7     8   ar
    12     8     9   ar
    13     9    15    1
    14    15    16   ar
    15    16    17   ar
    16    17    18   ar
    17    18    19    1
    18    18    20   ar
    19    20    21   ar
    20     9    10   ar
    21    10    11   ar
    22     4    12    1
    23    12    13    2
    24    12    14    1
    25    14     1    2
    26    11     3    1
    27    11     6   ar
    28    21    15   ar
    29    19    22    1
