@<TRIPOS>MOLECULE
*****
 34 36 0 0 0
SMALL
GASTEIGER

@<TRIPOS>ATOM
      1 C          62.7358   90.0527   10.9188 C.ar    1  UNL1        0.0206
      2 C          61.6550   90.5893   10.0278 C.ar    1  UNL1        0.0025
      3 C          60.6785   89.6501    9.3842 C.ar    1  UNL1        0.0128
      4 C          60.7827   88.1743    9.6316 C.ar    1  UNL1        0.0765
      5 CL         59.8061   87.2351    8.9880 Cl      1  UNL1       -0.0808
      6 C          61.8635   87.6377   10.5227 C.ar    1  UNL1        0.1357
      7 C          62.8401   88.5770   11.1663 C.ar    1  UNL1        0.0226
      8 C          65.4633   92.9011   11.3635 C.ar    1  UNL1        0.1654
      9 N          64.4868   91.9618   10.7200 N.ar    1  UNL1       -0.2364
     10 C          63.7124   90.9920   11.5624 C.ar    1  UNL1        0.1007
     11 C          63.9145   90.9614   13.0484 C.ar    1  UNL1        0.1194
     12 N          64.8911   91.9006   13.6919 N.ar    1  UNL1       -0.2263
     13 C          65.6655   92.8705   12.8495 C.ar    1  UNL1        0.1477
     14 N          66.6420   93.8097   13.4931 N.pl3   1  UNL1       -0.3413
     15 H          66.7747   93.7896   14.4684 H       1  UNL1        0.1438
     16 H          67.1503   94.4463   12.9401 H       1  UNL1        0.1438
     17 C          66.3052   95.9776    9.0022 C.3     1  UNL1        0.1110
     18 N          65.5308   95.0078    9.8446 N.am    1  UNL1       -0.2978
     19 C          66.2377   93.8709   10.5210 C.2     1  UNL1        0.2664
     20 O          67.7191   93.7038   10.3550 O.2     1  UNL1       -0.2684
     21 H          64.5585   95.1175    9.9536 H       1  UNL1        0.1498
     22 S          61.9678   86.1620   10.7701 S.O2    1  UNL1        0.0745
     23 O          62.8540   86.0230    9.5680 O.2     1  UNL1       -0.1499
     24 O          61.0815   86.3009   11.9723 O.2     1  UNL1       -0.1499
     25 N          62.0720   84.6862   11.0176 N.pl3   1  UNL1       -0.2127
     26 H          61.6541   84.0514   10.3918 H       1  UNL1        0.1738
     27 C          62.8130   84.1776   12.2186 C.ar    1  UNL1        0.0944
     28 C          63.4815   85.1432   13.1518 C.ar    1  UNL1        0.0183
     29 C          64.2225   84.6347   14.3527 C.ar    1  UNL1        0.0038
     30 C          64.2950   83.1606   14.6205 C.ar    1  UNL1        0.0321
     31 C          63.6265   82.1950   13.6873 C.ar    1  UNL1        0.1687
     32 F          63.6990   80.7208   13.9551 F       1  UNL1       -0.2018
     33 C          62.8855   82.7035   12.4864 C.ar    1  UNL1        0.1818
     34 F          62.2170   81.7380   11.5532 F       1  UNL1       -0.2004
@<TRIPOS>BOND
     1    17    18    1
     2    18    19   am
     3    19    20    2
     4    19     8    1
     5     8     9   ar
     6     9    10   ar
     7    10     1    1
     8     1     2   ar
     9     2     3   ar
    10     3     4   ar
    11     4     5    1
    12     4     6   ar
    13     6    22    1
    14    22    23    2
    15    22    24    2
    16    22    25    1
    17    25    27    1
    18    27    28   ar
    19    28    29   ar
    20    29    30   ar
    21    30    31   ar
    22    31    32    1
    23    31    33   ar
    24    33    34    1
    25     6     7   ar
    26    10    11   ar
    27    11    12   ar
    28    12    13   ar
    29    13    14    1
    30    13     8   ar
    31     7     1   ar
    32    33    27   ar
    33    18    21    1
    34    25    26    1
    35    14    15    1
    36    14    16    1
@<TRIPOS>MOLECULE
*****
 34 36 0 0 0
SMALL
GASTEIGER

@<TRIPOS>ATOM
      1 C          62.2483   85.9587   11.4081 C.ar    1  UNL1        0.0206
      2 C          61.3762   85.7904   10.1993 C.ar    1  UNL1        0.0025
      3 C          60.8820   86.9966    9.4573 C.ar    1  UNL1        0.0128
      4 C          61.2598   88.3713    9.9239 C.ar    1  UNL1        0.0765
      5 CL         60.7656   89.5775    9.1818 Cl      1  UNL1       -0.0808
      6 C          62.1319   88.5396   11.1327 C.ar    1  UNL1        0.1357
      7 C          62.6262   87.3333   11.8748 C.ar    1  UNL1        0.0226
      8 C          63.0467   82.1772   12.3094 C.ar    1  UNL1        0.1654
      9 N          62.5525   83.3834   11.5674 N.ar    1  UNL1       -0.2364
     10 C          62.7426   84.7524   12.1502 C.ar    1  UNL1        0.1007
     11 C          63.4268   84.9152   13.4751 C.ar    1  UNL1        0.1194
     12 N          63.9210   83.7089   14.2171 N.ar    1  UNL1       -0.2263
     13 C          63.7309   82.3399   13.6342 C.ar    1  UNL1        0.1477
     14 N          64.2252   81.1336   14.3763 N.pl3   1  UNL1       -0.3413
     15 H          64.6743   81.2404   15.2459 H       1  UNL1        0.1438
     16 H          64.1005   80.2351   13.9938 H       1  UNL1        0.1438
     17 C          62.8719   79.2142    9.6750 C.3     1  UNL1        0.1110
     18 N          63.0619   80.5832   10.2578 N.am    1  UNL1       -0.2978
     19 C          62.8567   80.8082   11.7265 C.2     1  UNL1        0.2664
     20 O          62.4615   79.6641   12.6124 O.2     1  UNL1       -0.2684
     21 H          63.3213   81.3341    9.6763 H       1  UNL1        0.1498
     22 S          62.5098   89.9141   11.5993 S.O2    1  UNL1        0.0745
     23 O          61.6617   89.7318   12.8230 O.2     1  UNL1       -0.1499
     24 O          63.3580   90.0964   10.3757 O.2     1  UNL1       -0.1499
     25 N          62.8877   91.2886   12.0660 N.pl3   1  UNL1       -0.2127
     26 H          62.1917   91.9724   12.1978 H       1  UNL1        0.1738
     27 C          64.3260   91.6214   12.3319 C.ar    1  UNL1        0.0944
     28 C          65.1196   92.3854   11.3139 C.ar    1  UNL1        0.0183
     29 C          66.5579   92.7182   11.5798 C.ar    1  UNL1        0.0038
     30 C          67.2024   92.2870   12.8637 C.ar    1  UNL1        0.0321
     31 C          66.4088   91.5231   13.8818 C.ar    1  UNL1        0.1687
     32 F          67.0534   91.0919   15.1658 F       1  UNL1       -0.2018
     33 C          64.9705   91.1903   13.6159 C.ar    1  UNL1        0.1818
     34 F          64.1769   90.4263   14.6340 F       1  UNL1       -0.2004
@<TRIPOS>BOND
     1    17    18    1
     2    18    19   am
     3    19    20    2
     4    19     8    1
     5     8     9   ar
     6     9    10   ar
     7    10     1    1
     8     1     2   ar
     9     2     3   ar
    10     3     4   ar
    11     4     5    1
    12     4     6   ar
    13     6    22    1
    14    22    23    2
    15    22    24    2
    16    22    25    1
    17    25    27    1
    18    27    28   ar
    19    28    29   ar
    20    29    30   ar
    21    30    31   ar
    22    31    32    1
    23    31    33   ar
    24    33    34    1
    25     6     7   ar
    26    10    11   ar
    27    11    12   ar
    28    12    13   ar
    29    13    14    1
    30    13     8   ar
    31     7     1   ar
    32    33    27   ar
    33    18    21    1
    34    25    26    1
    35    14    15    1
    36    14    16    1
@<TRIPOS>MOLECULE
*****
 34 36 0 0 0
SMALL
GASTEIGER

@<TRIPOS>ATOM
      1 C          62.5477   90.0468   10.6507 C.ar    1  UNL1        0.0206
      2 C          61.2985   90.5086    9.9606 C.ar    1  UNL1        0.0025
      3 C          60.2724   89.5080    9.5181 C.ar    1  UNL1        0.0128
      4 C          60.4955   88.0454    9.7657 C.ar    1  UNL1        0.0765
      5 CL         59.4694   87.0448    9.3232 Cl      1  UNL1       -0.0808
      6 C          61.7447   87.5836   10.4558 C.ar    1  UNL1        0.1357
      7 C          62.7708   88.5843   10.8983 C.ar    1  UNL1        0.0226
      8 C          65.1481   91.9933   12.9308 C.ar    1  UNL1        0.1654
      9 N          64.1220   90.9927   12.4883 N.ar    1  UNL1       -0.2364
     10 C          63.5738   91.0475   11.0932 C.ar    1  UNL1        0.1007
     11 C          64.0516   92.1031   10.1406 C.ar    1  UNL1        0.1194
     12 N          65.0776   93.1037   10.5831 N.ar    1  UNL1       -0.2263
     13 C          65.6259   93.0488   11.9782 C.ar    1  UNL1        0.1477
     14 N          66.6520   94.0496   12.4207 N.pl3   1  UNL1       -0.3413
     15 H          66.9656   94.7424   11.7955 H       1  UNL1        0.1438
     16 H          67.0118   94.0136   13.3364 H       1  UNL1        0.1438
     17 C          67.7275   91.9086   15.9457 C.3     1  UNL1        0.1110
     18 N          67.1792   91.9634   14.5506 N.am    1  UNL1       -0.2978
     19 C          65.6964   91.9384   14.3260 C.2     1  UNL1        0.2664
     20 O          64.7618   91.8586   15.4965 O.2     1  UNL1       -0.2684
     21 H          67.7926   92.0159   13.7824 H       1  UNL1        0.1498
     22 S          61.9678   86.1211   10.7034 S.O2    1  UNL1        0.0745
     23 O          61.2115   86.2244   11.9947 O.2     1  UNL1       -0.1499
     24 O          62.7241   86.0179    9.4122 O.2     1  UNL1       -0.1499
     25 N          62.1909   84.6587   10.9510 N.pl3   1  UNL1       -0.2127
     26 H          61.8722   83.9946   10.2978 H       1  UNL1        0.1738
     27 C          62.8996   84.2079   12.1939 C.ar    1  UNL1        0.0944
     28 C          63.5389   85.2175   13.1007 C.ar    1  UNL1        0.0183
     29 C          64.2476   84.7668   14.3435 C.ar    1  UNL1        0.0038
     30 C          64.3170   83.3067   14.6796 C.ar    1  UNL1        0.0321
     31 C          63.6777   82.2971   13.7728 C.ar    1  UNL1        0.1687
     32 F          63.7471   80.8369   14.1090 F       1  UNL1       -0.2018
     33 C          62.9690   82.7478   12.5300 C.ar    1  UNL1        0.1818
     34 F          62.3298   81.7382   11.6233 F       1  UNL1       -0.2004
@<TRIPOS>BOND
     1    17    18    1
     2    18    19   am
     3    19    20    2
     4    19     8    1
     5     8     9   ar
     6     9    10   ar
     7    10     1    1
     8     1     2   ar
     9     2     3   ar
    10     3     4   ar
    11     4     5    1
    12     4     6   ar
    13     6    22    1
    14    22    23    2
    15    22    24    2
    16    22    25    1
    17    25    27    1
    18    27    28   ar
    19    28    29   ar
    20    29    30   ar
    21    30    31   ar
    22    31    32    1
    23    31    33   ar
    24    33    34    1
    25     6     7   ar
    26    10    11   ar
    27    11    12   ar
    28    12    13   ar
    29    13    14    1
    30    13     8   ar
    31     7     1   ar
    32    33    27   ar
    33    18    21    1
    34    25    26    1
    35    14    15    1
    36    14    16    1
@<TRIPOS>MOLECULE
*****
 34 36 0 0 0
SMALL
GASTEIGER

@<TRIPOS>ATOM
      1 C          63.7126   88.5362   13.7428 C.ar    1  UNL1        0.0206
      2 C          63.1261   88.7714   12.3824 C.ar    1  UNL1        0.0025
      3 C          62.7564   87.6061   11.5134 C.ar    1  UNL1        0.0128
      4 C          62.9731   86.2055   12.0047 C.ar    1  UNL1        0.0765
      5 CL         62.6033   85.0402   11.1357 Cl      1  UNL1       -0.0808
      6 C          63.5595   85.9703   13.3652 C.ar    1  UNL1        0.1357
      7 C          63.9293   87.1357   14.2342 C.ar    1  UNL1        0.0226
      8 C          65.6883   91.6625   15.1826 C.ar    1  UNL1        0.1654
      9 N          65.3186   90.4972   14.3136 N.ar    1  UNL1       -0.2364
     10 C          64.0823   89.7017   14.6118 C.ar    1  UNL1        0.1007
     11 C          63.2159   90.0716   15.7790 C.ar    1  UNL1        0.1194
     12 N          63.5857   91.2369   16.6480 N.ar    1  UNL1       -0.2263
     13 C          64.8219   92.0324   16.3498 C.ar    1  UNL1        0.1477
     14 N          65.1917   93.1978   17.2188 N.pl3   1  UNL1       -0.3413
     15 H          64.6230   93.4406   17.9849 H       1  UNL1        0.1438
     16 H          66.0030   93.7199   17.0231 H       1  UNL1        0.1438
     17 C          69.1680   93.5081   15.6680 C.3     1  UNL1        0.1110
     18 N          67.9318   92.7126   15.9662 N.am    1  UNL1       -0.2978
     19 C          66.9246   92.4580   14.8843 C.2     1  UNL1        0.2664
     20 O          67.1536   92.9989   13.5041 O.2     1  UNL1       -0.2684
     21 H          67.7815   92.3576   16.8721 H       1  UNL1        0.1498
     22 S          63.7762   84.5698   13.8566 S.O2    1  UNL1        0.0745
     23 O          62.3038   84.4294   14.1059 O.2     1  UNL1       -0.1499
     24 O          65.2486   84.7101   13.6073 O.2     1  UNL1       -0.1499
     25 N          63.9929   83.1693   14.3480 N.pl3   1  UNL1       -0.2127
     26 H          64.4994   83.0114   15.1773 H       1  UNL1        0.1738
     27 C          63.4378   82.0092   13.5758 C.ar    1  UNL1        0.0944
     28 C          62.5627   81.0019   14.2612 C.ar    1  UNL1        0.0183
     29 C          62.0077   79.8419   13.4891 C.ar    1  UNL1        0.0038
     30 C          62.3278   79.6890   12.0316 C.ar    1  UNL1        0.0321
     31 C          63.2029   80.6963   11.3463 C.ar    1  UNL1        0.1687
     32 F          63.5230   80.5434    9.8888 F       1  UNL1       -0.2018
     33 C          63.7579   81.8563   12.1184 C.ar    1  UNL1        0.1818
     34 F          64.6330   82.8635   11.4330 F       1  UNL1       -0.2004
@<TRIPOS>BOND
     1    17    18    1
     2    18    19   am
     3    19    20    2
     4    19     8    1
     5     8     9   ar
     6     9    10   ar
     7    10     1    1
     8     1     2   ar
     9     2     3   ar
    10     3     4   ar
    11     4     5    1
    12     4     6   ar
    13     6    22    1
    14    22    23    2
    15    22    24    2
    16    22    25    1
    17    25    27    1
    18    27    28   ar
    19    28    29   ar
    20    29    30   ar
    21    30    31   ar
    22    31    32    1
    23    31    33   ar
    24    33    34    1
    25     6     7   ar
    26    10    11   ar
    27    11    12   ar
    28    12    13   ar
    29    13    14    1
    30    13     8   ar
    31     7     1   ar
    32    33    27   ar
    33    18    21    1
    34    25    26    1
    35    14    15    1
    36    14    16    1
@<TRIPOS>MOLECULE
*****
 34 36 0 0 0
SMALL
GASTEIGER

@<TRIPOS>ATOM
      1 C          61.7560   86.1260   10.7281 C.ar    1  UNL1        0.0206
      2 C          60.8456   85.8653    9.5648 C.ar    1  UNL1        0.0025
      3 C          60.3456   87.0087    8.7328 C.ar    1  UNL1        0.0128
      4 C          60.7560   88.4130    9.0639 C.ar    1  UNL1        0.0765
      5 CL         60.2560   89.5565    8.2318 Cl      1  UNL1       -0.0808
      6 C          61.6664   88.6738   10.2272 C.ar    1  UNL1        0.1357
      7 C          62.1664   87.5302   11.0593 C.ar    1  UNL1        0.0226
      8 C          62.9939   84.0280   13.8612 C.ar    1  UNL1        0.1654
      9 N          62.4939   85.1715   13.0291 N.ar    1  UNL1       -0.2364
     10 C          62.2560   84.9824   11.5602 C.ar    1  UNL1        0.1007
     11 C          62.5180   83.6498   10.9234 C.ar    1  UNL1        0.1194
     12 N          63.0180   82.5063   11.7555 N.ar    1  UNL1       -0.2263
     13 C          63.2559   82.6954   13.2244 C.ar    1  UNL1        0.1477
     14 N          63.7559   81.5519   14.0565 N.pl3   1  UNL1       -0.3413
     15 H          63.9279   80.6772   13.6386 H       1  UNL1        0.1438
     16 H          63.9121   81.6760   15.0206 H       1  UNL1        0.1438
     17 C          62.9513   85.6318   17.4911 C.3     1  UNL1        0.1110
     18 N          62.7134   85.4427   16.0222 N.am    1  UNL1       -0.2978
     19 C          63.2318   84.2171   15.3301 C.2     1  UNL1        0.2664
     20 O          63.9882   83.1806   16.1069 O.2     1  UNL1       -0.2684
     21 H          62.2169   86.1230   15.5124 H       1  UNL1        0.1498
     22 S          62.0769   90.0780   10.5583 S.O2    1  UNL1        0.0745
     23 O          60.8364   90.2456   11.3847 O.2     1  UNL1       -0.1499
     24 O          63.3174   89.9103    9.7320 O.2     1  UNL1       -0.1499
     25 N          62.4873   91.4822   10.8895 N.pl3   1  UNL1       -0.2127
     26 H          61.8893   92.2338   10.6732 H       1  UNL1        0.1738
     27 C          63.8088   91.7412   11.5503 C.ar    1  UNL1        0.0944
     28 C          64.8716   92.5122   10.8249 C.ar    1  UNL1        0.0183
     29 C          66.1931   92.7713   11.4856 C.ar    1  UNL1        0.0038
     30 C          66.4518   92.2595   12.8716 C.ar    1  UNL1        0.0321
     31 C          65.3890   91.4885   13.5969 C.ar    1  UNL1        0.1687
     32 F          65.6477   90.9766   14.9830 F       1  UNL1       -0.2018
     33 C          64.0675   91.2294   12.9362 C.ar    1  UNL1        0.1818
     34 F          63.0047   90.4584   13.6616 F       1  UNL1       -0.2004
@<TRIPOS>BOND
     1    17    18    1
     2    18    19   am
     3    19    20    2
     4    19     8    1
     5     8     9   ar
     6     9    10   ar
     7    10     1    1
     8     1     2   ar
     9     2     3   ar
    10     3     4   ar
    11     4     5    1
    12     4     6   ar
    13     6    22    1
    14    22    23    2
    15    22    24    2
    16    22    25    1
    17    25    27    1
    18    27    28   ar
    19    28    29   ar
    20    29    30   ar
    21    30    31   ar
    22    31    32    1
    23    31    33   ar
    24    33    34    1
    25     6     7   ar
    26    10    11   ar
    27    11    12   ar
    28    12    13   ar
    29    13    14    1
    30    13     8   ar
    31     7     1   ar
    32    33    27   ar
    33    18    21    1
    34    25    26    1
    35    14    15    1
    36    14    16    1
@<TRIPOS>MOLECULE
*****
 34 36 0 0 0
SMALL
GASTEIGER

@<TRIPOS>ATOM
      1 C          62.9378   90.1251   12.0560 C.ar    1  UNL1        0.0206
      2 C          62.3526   91.0227   11.0064 C.ar    1  UNL1        0.0025
      3 C          61.5901   90.4343    9.8565 C.ar    1  UNL1        0.0128
      4 C          61.4128   88.9481    9.7562 C.ar    1  UNL1        0.0765
      5 CL         60.6503   88.3597    8.6063 Cl      1  UNL1       -0.0808
      6 C          61.9981   88.0505   10.8058 C.ar    1  UNL1        0.1357
      7 C          62.7606   88.6390   11.9557 C.ar    1  UNL1        0.0226
      8 C          65.8049   91.9302   14.1227 C.ar    1  UNL1        0.1654
      9 N          65.0424   91.3417   12.9729 N.ar    1  UNL1       -0.2364
     10 C          63.7003   90.7136   13.2059 C.ar    1  UNL1        0.1007
     11 C          63.1208   90.6740   14.5889 C.ar    1  UNL1        0.1194
     12 N          63.8833   91.2625   15.7387 N.ar    1  UNL1       -0.2263
     13 C          65.2254   91.8906   15.5056 C.ar    1  UNL1        0.1477
     14 N          65.9879   92.4791   16.6556 N.pl3   1  UNL1       -0.3413
     15 H          65.6075   92.4531   17.5632 H       1  UNL1        0.1438
     16 H          66.8687   92.8914   16.5026 H       1  UNL1        0.1438
     17 C          69.7269   92.5326   14.1953 C.3     1  UNL1        0.1110
     18 N          68.3848   91.9045   14.4284 N.am    1  UNL1       -0.2978
     19 C          67.1470   92.5583   13.8897 C.2     1  UNL1        0.2664
     20 O          67.2512   93.8403   13.1179 O.2     1  UNL1       -0.2684
     21 H          68.3164   91.0631   14.9349 H       1  UNL1        0.1498
     22 S          61.8209   86.5644   10.7055 S.O2    1  UNL1        0.0745
     23 O          60.8491   86.6032   11.8475 O.2     1  UNL1       -0.1499
     24 O          62.7926   86.5256    9.5635 O.2     1  UNL1       -0.1499
     25 N          61.6437   85.0783   10.6053 N.pl3   1  UNL1       -0.2127
     26 H          60.8245   84.7061   10.2057 H       1  UNL1        0.1738
     27 C          62.7146   84.1592   11.1138 C.ar    1  UNL1        0.0944
     28 C          63.6121   83.4458   10.1466 C.ar    1  UNL1        0.0183
     29 C          64.6830   82.5268   10.6550 C.ar    1  UNL1        0.0038
     30 C          64.8564   82.3212   12.1307 C.ar    1  UNL1        0.0321
     31 C          63.9589   83.0346   13.0979 C.ar    1  UNL1        0.1687
     32 F          64.1323   82.8290   14.5736 F       1  UNL1       -0.2018
     33 C          62.8880   83.9536   12.5894 C.ar    1  UNL1        0.1818
     34 F          61.9905   84.6671   13.5566 F       1  UNL1       -0.2004
@<TRIPOS>BOND
     1    17    18    1
     2    18    19   am
     3    19    20    2
     4    19     8    1
     5     8     9   ar
     6     9    10   ar
     7    10     1    1
     8     1     2   ar
     9     2     3   ar
    10     3     4   ar
    11     4     5    1
    12     4     6   ar
    13     6    22    1
    14    22    23    2
    15    22    24    2
    16    22    25    1
    17    25    27    1
    18    27    28   ar
    19    28    29   ar
    20    29    30   ar
    21    30    31   ar
    22    31    32    1
    23    31    33   ar
    24    33    34    1
    25     6     7   ar
    26    10    11   ar
    27    11    12   ar
    28    12    13   ar
    29    13    14    1
    30    13     8   ar
    31     7     1   ar
    32    33    27   ar
    33    18    21    1
    34    25    26    1
    35    14    15    1
    36    14    16    1
@<TRIPOS>MOLECULE
*****
 34 36 0 0 0
SMALL
GASTEIGER

@<TRIPOS>ATOM
      1 C          63.7344   88.9811   12.8570 C.ar    1  UNL1        0.0206
      2 C          62.8477   89.0829   11.6514 C.ar    1  UNL1        0.0025
      3 C          62.1738   87.8569   11.1103 C.ar    1  UNL1        0.0128
      4 C          62.3867   86.5290   11.7748 C.ar    1  UNL1        0.0765
      5 CL         61.7129   85.3030   11.2337 Cl      1  UNL1       -0.0808
      6 C          63.2734   86.4272   12.9803 C.ar    1  UNL1        0.1357
      7 C          63.9473   87.6533   13.5214 C.ar    1  UNL1        0.0226
      8 C          65.6282   92.4658   12.9982 C.ar    1  UNL1        0.1654
      9 N          64.9544   91.2398   12.4572 N.ar    1  UNL1       -0.2364
     10 C          64.4083   90.2072   13.3981 C.ar    1  UNL1        0.1007
     11 C          64.5359   90.4006   14.8800 C.ar    1  UNL1        0.1194
     12 N          65.2097   91.6266   15.4211 N.ar    1  UNL1       -0.2263
     13 C          65.7559   92.6592   14.4801 C.ar    1  UNL1        0.1477
     14 N          66.4298   93.8853   15.0212 N.pl3   1  UNL1       -0.3413
     15 H          66.5136   94.0122   15.9939 H       1  UNL1        0.1438
     16 H          66.7882   94.5631   14.4037 H       1  UNL1        0.1438
     17 C          67.2764   94.1151    9.7867 C.3     1  UNL1        0.1110
     18 N          66.7302   93.0824   10.7277 N.am    1  UNL1       -0.2978
     19 C          66.1744   93.4985   12.0572 C.2     1  UNL1        0.2664
     20 O          66.1647   94.9472   12.4459 O.2     1  UNL1       -0.2684
     21 H          66.7366   92.1316   10.4725 H       1  UNL1        0.1498
     22 S          63.4863   85.0994   13.6447 S.O2    1  UNL1        0.0745
     23 O          62.0042   84.9491   13.8194 O.2     1  UNL1       -0.1499
     24 O          64.9685   85.2496   13.4700 O.2     1  UNL1       -0.1499
     25 N          63.6992   83.7715   14.3092 N.pl3   1  UNL1       -0.2127
     26 H          64.1316   83.7268   15.1925 H       1  UNL1        0.1738
     27 C          63.2534   82.5118   13.6277 C.ar    1  UNL1        0.0944
     28 C          62.4868   81.4753   14.3945 C.ar    1  UNL1        0.0183
     29 C          62.0410   80.2156   13.7132 C.ar    1  UNL1        0.0038
     30 C          62.3616   79.9924   12.2650 C.ar    1  UNL1        0.0321
     31 C          63.1281   81.0289   11.4982 C.ar    1  UNL1        0.1687
     32 F          63.4488   80.8057   10.0499 F       1  UNL1       -0.2018
     33 C          63.5740   82.2886   12.1795 C.ar    1  UNL1        0.1818
     34 F          64.3405   83.3251   11.4127 F       1  UNL1       -0.2004
@<TRIPOS>BOND
     1    17    18    1
     2    18    19   am
     3    19    20    2
     4    19     8    1
     5     8     9   ar
     6     9    10   ar
     7    10     1    1
     8     1     2   ar
     9     2     3   ar
    10     3     4   ar
    11     4     5    1
    12     4     6   ar
    13     6    22    1
    14    22    23    2
    15    22    24    2
    16    22    25    1
    17    25    27    1
    18    27    28   ar
    19    28    29   ar
    20    29    30   ar
    21    30    31   ar
    22    31    32    1
    23    31    33   ar
    24    33    34    1
    25     6     7   ar
    26    10    11   ar
    27    11    12   ar
    28    12    13   ar
    29    13    14    1
    30    13     8   ar
    31     7     1   ar
    32    33    27   ar
    33    18    21    1
    34    25    26    1
    35    14    15    1
    36    14    16    1
@<TRIPOS>MOLECULE
*****
 34 36 0 0 0
SMALL
GASTEIGER

@<TRIPOS>ATOM
      1 C          61.7473   86.8745   10.6292 C.ar    1  UNL1        0.0206
      2 C          60.4400   87.1197    9.9357 C.ar    1  UNL1        0.0025
      3 C          59.8049   88.4775    9.9908 C.ar    1  UNL1        0.0128
      4 C          60.4770   89.5901   10.7395 C.ar    1  UNL1        0.0765
      5 CL         59.8419   90.9478   10.7946 Cl      1  UNL1       -0.0808
      6 C          61.7843   89.3449   11.4330 C.ar    1  UNL1        0.1357
      7 C          62.4194   87.9870   11.3778 C.ar    1  UNL1        0.0226
      8 C          62.9553   83.2528   11.7127 C.ar    1  UNL1        0.1654
      9 N          62.3202   84.6106   11.7678 N.ar    1  UNL1       -0.2364
     10 C          62.3824   85.5167   10.5740 C.ar    1  UNL1        0.1007
     11 C          63.0797   85.0650    9.3251 C.ar    1  UNL1        0.1194
     12 N          63.7147   83.7072    9.2700 N.ar    1  UNL1       -0.2263
     13 C          63.6525   82.8011   10.4638 C.ar    1  UNL1        0.1477
     14 N          64.2877   81.4433   10.4087 N.pl3   1  UNL1       -0.3413
     15 H          64.7453   81.1468    9.5889 H       1  UNL1        0.1438
     16 H          64.2469   80.8485   11.1922 H       1  UNL1        0.1438
     17 C          61.7527   80.4024   14.1984 C.3     1  UNL1        0.1110
     18 N          61.8149   81.3085   13.0047 N.am    1  UNL1       -0.2978
     19 C          62.8931   82.3467   12.9065 C.2     1  UNL1        0.2664
     20 O          63.9090   82.4788   14.0021 O.2     1  UNL1       -0.2684
     21 H          61.1481   81.2218   12.2856 H       1  UNL1        0.1498
     22 S          62.4564   90.4574   12.1816 S.O2    1  UNL1        0.0745
     23 O          62.0473   89.8300   13.4812 O.2     1  UNL1       -0.1499
     24 O          62.8655   91.0847   10.8821 O.2     1  UNL1       -0.1499
     25 N          63.1285   91.5699   12.9303 N.pl3   1  UNL1       -0.2127
     26 H          62.5906   92.2032   13.4583 H       1  UNL1        0.1738
     27 C          64.6203   91.7175   12.8745 C.ar    1  UNL1        0.0944
     28 C          65.2735   92.2720   11.6433 C.ar    1  UNL1        0.0183
     29 C          66.7651   92.4196   11.5874 C.ar    1  UNL1        0.0038
     30 C          67.6035   92.0126   12.7628 C.ar    1  UNL1        0.0321
     31 C          66.9503   91.4581   13.9939 C.ar    1  UNL1        0.1687
     32 F          67.7888   91.0512   15.1693 F       1  UNL1       -0.2018
     33 C          65.4587   91.3105   14.0498 C.ar    1  UNL1        0.1818
     34 F          64.8054   90.7560   15.2810 F       1  UNL1       -0.2004
@<TRIPOS>BOND
     1    17    18    1
     2    18    19   am
     3    19    20    2
     4    19     8    1
     5     8     9   ar
     6     9    10   ar
     7    10     1    1
     8     1     2   ar
     9     2     3   ar
    10     3     4   ar
    11     4     5    1
    12     4     6   ar
    13     6    22    1
    14    22    23    2
    15    22    24    2
    16    22    25    1
    17    25    27    1
    18    27    28   ar
    19    28    29   ar
    20    29    30   ar
    21    30    31   ar
    22    31    32    1
    23    31    33   ar
    24    33    34    1
    25     6     7   ar
    26    10    11   ar
    27    11    12   ar
    28    12    13   ar
    29    13    14    1
    30    13     8   ar
    31     7     1   ar
    32    33    27   ar
    33    18    21    1
    34    25    26    1
    35    14    15    1
    36    14    16    1
@<TRIPOS>MOLECULE
*****
 34 36 0 0 0
SMALL
GASTEIGER

@<TRIPOS>ATOM
      1 C          62.6057   89.9419   10.7153 C.ar    1  UNL1        0.0206
      2 C          61.4231   90.4073    9.9185 C.ar    1  UNL1        0.0025
      3 C          60.4131   89.4140    9.4253 C.ar    1  UNL1        0.0128
      4 C          60.5857   87.9552    9.7290 C.ar    1  UNL1        0.0765
      5 CL         59.5757   86.9619    9.2359 Cl      1  UNL1       -0.0808
      6 C          61.7683   87.4897   10.5258 C.ar    1  UNL1        0.1357
      7 C          62.7783   88.4831   11.0189 C.ar    1  UNL1        0.0226
      8 C          65.0600   91.9068   13.1372 C.ar    1  UNL1        0.1654
      9 N          64.0500   90.9135   12.6440 N.ar    1  UNL1       -0.2364
     10 C          63.6157   90.9353   11.2084 C.ar    1  UNL1        0.1007
     11 C          64.1913   91.9503   10.2660 C.ar    1  UNL1        0.1194
     12 N          65.2013   92.9437   10.7592 N.ar    1  UNL1       -0.2263
     13 C          65.6356   92.9219   12.1947 C.ar    1  UNL1        0.1477
     14 N          66.6456   93.9153   12.6879 N.pl3   1  UNL1       -0.3413
     15 H          67.0234   94.5815   12.0693 H       1  UNL1        0.1438
     16 H          66.9307   93.9010   13.6301 H       1  UNL1        0.1438
     17 C          64.9259   92.0977   17.0989 C.3     1  UNL1        0.1110
     18 N          64.4916   92.1195   15.6633 N.am    1  UNL1       -0.2978
     19 C          65.4943   91.8850   14.5727 C.2     1  UNL1        0.2664
     20 O          66.9314   91.6287   14.9177 O.2     1  UNL1       -0.2684
     21 H          63.5483   92.2877   15.4369 H       1  UNL1        0.1498
     22 S          61.9408   86.0310   10.8295 S.O2    1  UNL1        0.0745
     23 O          62.8554   85.8934    9.6486 O.2     1  UNL1       -0.1499
     24 O          61.0263   86.1686   12.0103 O.2     1  UNL1       -0.1499
     25 N          62.1134   84.5723   11.1331 N.pl3   1  UNL1       -0.2127
     26 H          61.8238   83.8957   10.4792 H       1  UNL1        0.1738
     27 C          62.7274   84.1443   12.4331 C.ar    1  UNL1        0.0944
     28 C          62.5098   82.7502   12.9423 C.ar    1  UNL1        0.0183
     29 C          63.1237   82.3222   14.2423 C.ar    1  UNL1        0.0038
     30 C          63.9552   83.2883   15.0330 C.ar    1  UNL1        0.0321
     31 C          64.1728   84.6823   14.5238 C.ar    1  UNL1        0.1687
     32 F          65.0043   85.6484   15.3146 F       1  UNL1       -0.2018
     33 C          63.5589   85.1103   13.2239 C.ar    1  UNL1        0.1818
     34 F          63.7765   86.5044   12.7147 F       1  UNL1       -0.2004
@<TRIPOS>BOND
     1    17    18    1
     2    18    19   am
     3    19    20    2
     4    19     8    1
     5     8     9   ar
     6     9    10   ar
     7    10     1    1
     8     1     2   ar
     9     2     3   ar
    10     3     4   ar
    11     4     5    1
    12     4     6   ar
    13     6    22    1
    14    22    23    2
    15    22    24    2
    16    22    25    1
    17    25    27    1
    18    27    28   ar
    19    28    29   ar
    20    29    30   ar
    21    30    31   ar
    22    31    32    1
    23    31    33   ar
    24    33    34    1
    25     6     7   ar
    26    10    11   ar
    27    11    12   ar
    28    12    13   ar
    29    13    14    1
    30    13     8   ar
    31     7     1   ar
    32    33    27   ar
    33    18    21    1
    34    25    26    1
    35    14    15    1
    36    14    16    1
