@<TRIPOS>MOLECULE
*****
 36 38 0 0 0
SMALL
GASTEIGER

@<TRIPOS>ATOM
      1 C          64.1155   90.8680   12.8247 C.ar    1  UNL1        0.1544
      2 S          65.0986   91.9997   12.8765 S.2     1  UNL1       -0.0714
      3 C          65.0820   92.6895   11.5446 C.ar    1  UNL1        0.0086
      4 C          64.0886   91.9841   10.6697 C.ar    1  UNL1        0.0040
      5 C          63.4912   90.8584   11.4608 C.ar    1  UNL1        0.0252
      6 C          62.4520   89.8926   10.9735 C.ar    1  UNL1        0.0019
      7 C          61.0760   90.3813   10.6305 C.ar    1  UNL1        0.0001
      8 C          60.0369   89.4156   10.1433 C.ar    1  UNL1        0.0001
      9 C          60.3738   87.9610    9.9990 C.ar    1  UNL1        0.0029
     10 C          61.7498   87.4722   10.3421 C.ar    1  UNL1        0.0367
     11 C          62.7889   88.4380   10.8293 C.ar    1  UNL1        0.0030
     12 C          62.0867   86.0177   10.1979 C.2     1  UNL1        0.1958
     13 O          62.6954   85.5116    8.9238 O.2     1  UNL1       -0.2893
     14 C          61.8148   85.0693   11.3277 C.3     1  UNL1        0.1764
     15 N          62.9114   84.7108   12.2864 N.ar    1  UNL1       -0.3063
     16 C          63.4375   85.5806   13.3894 C.ar    1  UNL1        0.0981
     17 C          64.5256   84.8270   14.0951 C.ar    1  UNL1        0.1188
     18 N          64.6721   83.4914   13.4282 N.ar    1  UNL1       -0.2293
     19 C          63.6744   83.4195   12.3103 C.ar    1  UNL1        0.1199
     20 C          63.4748   82.2601   11.3799 C.3     1  UNL1        0.0507
     21 C          64.4144   82.8892   10.3943 C.3     1  UNL1        0.0075
     22 C          62.5352   81.6309   12.3654 C.3     1  UNL1        0.0075
     23 C          63.2752   81.1006   10.4494 C.3     1  UNL1        0.0075
     24 S          63.8102   89.9135   13.9408 S.O2    1  UNL1        0.0838
     25 O          62.3423   90.0764   13.6787 O.2     1  UNL1       -0.1493
     26 O          65.2782   89.7506   14.2030 O.2     1  UNL1       -0.1493
     27 C          63.2974   89.4756   16.4498 C.2     1  UNL1        0.4206
     28 O          63.3949   90.9467   16.7265 O.2     1  UNL1       -0.2248
     29 N          63.5050   88.9591   15.0570 N.am    1  UNL1       -0.1502
     30 H          63.4410   87.9936   14.8753 H       1  UNL1        0.1800
     31 C          62.7762   87.0665   17.2710 C.3     1  UNL1        0.2574
     32 O          62.9922   88.5212   17.5661 O.3     1  UNL1       -0.4296
     33 C          65.9129   93.8763   11.1559 C.3     1  UNL1        0.0330
     34 C          67.0370   93.7162   10.1756 C.3     1  UNL1        0.0049
     35 C          67.4671   94.8790    9.3313 C.3     1  UNL1        0.0004
     36 C          67.7309   92.3932   10.0397 C.3     1  UNL1        0.0004
@<TRIPOS>BOND
     1    31    32    1
     2    32    27    1
     3    27    28    2
     4    27    29   am
     5    29    24    1
     6    24    25    2
     7    24    26    2
     8    24     1    1
     9     1     2   ar
    10     2     3   ar
    11     3    33    1
    12    33    34    1
    13    34    35    1
    14    34    36    1
    15     3     4   ar
    16     4     5   ar
    17     5     6    1
    18     6     7   ar
    19     7     8   ar
    20     8     9   ar
    21     9    10   ar
    22    10    12    1
    23    12    13    2
    24    12    14    1
    25    14    15    1
    26    15    16   ar
    27    16    17   ar
    28    17    18   ar
    29    18    19   ar
    30    19    20    1
    31    20    21    1
    32    20    22    1
    33    20    23    1
    34    10    11   ar
    35     5     1   ar
    36    11     6   ar
    37    19    15   ar
    38    29    30    1
@<TRIPOS>MOLECULE
*****
 36 38 0 0 0
SMALL
GASTEIGER

@<TRIPOS>ATOM
      1 C          63.3498   89.8744   12.7369 C.ar    1  UNL1        0.1544
      2 S          63.9103   91.1266   12.1304 S.2     1  UNL1       -0.0714
      3 C          64.9919   91.6365   13.0363 C.ar    1  UNL1        0.0086
      4 C          65.0997   90.6993   14.2025 C.ar    1  UNL1        0.0040
      5 C          64.0848   89.6103   14.0174 C.ar    1  UNL1        0.0252
      6 C          63.8468   88.4593   14.9494 C.ar    1  UNL1        0.0019
      7 C          63.2544   88.7026   16.3058 C.ar    1  UNL1        0.0001
      8 C          63.0164   87.5516   17.2377 C.ar    1  UNL1        0.0001
      9 C          63.3708   86.1573   16.8133 C.ar    1  UNL1        0.0029
     10 C          63.9632   85.9139   15.4569 C.ar    1  UNL1        0.0367
     11 C          64.2012   87.0649   14.5250 C.ar    1  UNL1        0.0030
     12 C          64.3176   84.5196   15.0324 C.2     1  UNL1        0.1958
     13 O          64.4889   83.4427   16.0624 O.2     1  UNL1       -0.2893
     14 C          64.5008   84.2021   13.5779 C.3     1  UNL1        0.1764
     15 N          63.8230   83.0047   12.9805 N.ar    1  UNL1       -0.3063
     16 C          63.6598   81.6654   13.6360 C.ar    1  UNL1        0.0981
     17 C          62.9254   80.7694   12.6833 C.ar    1  UNL1        0.1188
     18 N          62.6347   81.5548   11.4389 N.ar    1  UNL1       -0.2293
     19 C          63.1894   82.9364   11.6225 C.ar    1  UNL1        0.1199
     20 C          63.1224   84.0533   10.6237 C.3     1  UNL1        0.0507
     21 C          62.1120   84.7580   11.4794 C.3     1  UNL1        0.0075
     22 C          64.1328   83.3487    9.7678 C.3     1  UNL1        0.0075
     23 C          63.0553   85.1703    9.6247 C.3     1  UNL1        0.0075
     24 S          62.2477   89.0340   12.1633 S.O2    1  UNL1        0.0838
     25 O          61.2324   89.8852   12.8666 O.2     1  UNL1       -0.1493
     26 O          63.2630   88.1826   11.4600 O.2     1  UNL1       -0.1493
     27 C          60.6544   88.4502   10.1959 C.2     1  UNL1        0.4206
     28 O          61.2653   89.5475    9.3757 O.2     1  UNL1       -0.2248
     29 N          61.1457   88.1934   11.5898 N.am    1  UNL1       -0.1502
     30 H          60.7448   87.4732   12.1281 H       1  UNL1        0.1800
     31 C          59.8152   86.7423    8.4270 C.3     1  UNL1        0.2574
     32 O          59.5524   87.6097    9.6222 O.3     1  UNL1       -0.4296
     33 C          65.8201   92.8673   12.8147 C.3     1  UNL1        0.0330
     34 C          66.2705   93.2290   11.4304 C.3     1  UNL1        0.0049
     35 C          67.2503   92.3530   10.7076 C.3     1  UNL1        0.0004
     36 C          65.7411   94.4669   10.7690 C.3     1  UNL1        0.0004
@<TRIPOS>BOND
     1    31    32    1
     2    32    27    1
     3    27    28    2
     4    27    29   am
     5    29    24    1
     6    24    25    2
     7    24    26    2
     8    24     1    1
     9     1     2   ar
    10     2     3   ar
    11     3    33    1
    12    33    34    1
    13    34    35    1
    14    34    36    1
    15     3     4   ar
    16     4     5   ar
    17     5     6    1
    18     6     7   ar
    19     7     8   ar
    20     8     9   ar
    21     9    10   ar
    22    10    12    1
    23    12    13    2
    24    12    14    1
    25    14    15    1
    26    15    16   ar
    27    16    17   ar
    28    17    18   ar
    29    18    19   ar
    30    19    20    1
    31    20    21    1
    32    20    22    1
    33    20    23    1
    34    10    11   ar
    35     5     1   ar
    36    11     6   ar
    37    19    15   ar
    38    29    30    1
@<TRIPOS>MOLECULE
*****
 36 38 0 0 0
SMALL
GASTEIGER

@<TRIPOS>ATOM
      1 C          64.2408   90.9188   13.0933 C.ar    1  UNL1        0.1544
      2 S          65.3216   91.9578   13.0464 S.2     1  UNL1       -0.0714
      3 C          65.2995   92.5886   11.6856 C.ar    1  UNL1        0.0086
      4 C          64.2050   91.9393   10.8916 C.ar    1  UNL1        0.0040
      5 C          63.5507   90.9074   11.7616 C.ar    1  UNL1        0.0252
      6 C          62.4070   90.0198   11.3687 C.ar    1  UNL1        0.0019
      7 C          61.0307   90.5951   11.2118 C.ar    1  UNL1        0.0001
      8 C          59.8871   89.7076   10.8190 C.ar    1  UNL1        0.0001
      9 C          60.1198   88.2446   10.5831 C.ar    1  UNL1        0.0029
     10 C          61.4961   87.6693   10.7400 C.ar    1  UNL1        0.0367
     11 C          62.6397   88.5568   11.1328 C.ar    1  UNL1        0.0030
     12 C          61.7289   86.2063   10.5041 C.2     1  UNL1        0.1958
     13 O          61.4861   85.6177    9.1460 O.2     1  UNL1       -0.2893
     14 C          62.2043   85.3320   11.6263 C.3     1  UNL1        0.1764
     15 N          63.1409   84.1944   11.3457 N.ar    1  UNL1       -0.3063
     16 C          63.6348   83.7720    9.9939 C.ar    1  UNL1        0.0981
     17 C          64.5472   82.5960   10.1803 C.ar    1  UNL1        0.1188
     18 N          64.6171   82.2916   11.6475 N.ar    1  UNL1       -0.2293
     19 C          63.7479   83.2795   12.3678 C.ar    1  UNL1        0.1199
     20 C          63.5250   83.3416   13.8497 C.3     1  UNL1        0.0507
     21 C          64.7860   84.1387   14.0061 C.3     1  UNL1        0.0075
     22 C          62.2640   82.5445   13.6935 C.3     1  UNL1        0.0075
     23 C          63.3020   83.4036   15.3318 C.3     1  UNL1        0.0075
     24 S          63.9084   90.0447   14.2661 S.O2    1  UNL1        0.0838
     25 O          65.3711   89.8531   14.5379 O.2     1  UNL1       -0.1493
     26 O          62.4457   90.2363   13.9944 O.2     1  UNL1       -0.1493
     27 C          63.6385   87.6780   15.3034 C.2     1  UNL1        0.4206
     28 O          64.0334   87.0596   13.9951 O.2     1  UNL1       -0.2248
     29 N          63.5760   89.1706   15.4389 N.am    1  UNL1       -0.1502
     30 H          63.3168   89.5765   16.2975 H       1  UNL1        0.1800
     31 C          62.7905   87.4153   17.7451 C.3     1  UNL1        0.2574
     32 O          63.3061   86.8038   16.4761 O.3     1  UNL1       -0.4296
     33 C          66.2118   93.6774   11.2036 C.3     1  UNL1        0.0330
     34 C          67.1393   93.4238   10.0523 C.3     1  UNL1        0.0049
     35 C          67.2778   94.4444    8.9619 C.3     1  UNL1        0.0004
     36 C          67.9285   92.1495    9.9916 C.3     1  UNL1        0.0004
@<TRIPOS>BOND
     1    31    32    1
     2    32    27    1
     3    27    28    2
     4    27    29   am
     5    29    24    1
     6    24    25    2
     7    24    26    2
     8    24     1    1
     9     1     2   ar
    10     2     3   ar
    11     3    33    1
    12    33    34    1
    13    34    35    1
    14    34    36    1
    15     3     4   ar
    16     4     5   ar
    17     5     6    1
    18     6     7   ar
    19     7     8   ar
    20     8     9   ar
    21     9    10   ar
    22    10    12    1
    23    12    13    2
    24    12    14    1
    25    14    15    1
    26    15    16   ar
    27    16    17   ar
    28    17    18   ar
    29    18    19   ar
    30    19    20    1
    31    20    21    1
    32    20    22    1
    33    20    23    1
    34    10    11   ar
    35     5     1   ar
    36    11     6   ar
    37    19    15   ar
    38    29    30    1
@<TRIPOS>MOLECULE
*****
 36 38 0 0 0
SMALL
GASTEIGER

@<TRIPOS>ATOM
      1 C          63.1763   90.3846   11.8563 C.ar    1  UNL1        0.1544
      2 S          63.6485   91.5264   11.0059 S.2     1  UNL1       -0.0714
      3 C          64.7417   92.2363   11.7484 C.ar    1  UNL1        0.0086
      4 C          64.9450   91.5331   13.0577 C.ar    1  UNL1        0.0040
      5 C          63.9775   90.3887   13.1244 C.ar    1  UNL1        0.0252
      6 C          63.8361   89.4188   14.2599 C.ar    1  UNL1        0.0019
      7 C          63.2992   89.8838   15.5810 C.ar    1  UNL1        0.0001
      8 C          63.1578   88.9138   16.7164 C.ar    1  UNL1        0.0001
      9 C          63.5534   87.4789   16.5307 C.ar    1  UNL1        0.0029
     10 C          64.0904   87.0139   15.2096 C.ar    1  UNL1        0.0367
     11 C          64.2317   87.9839   14.0742 C.ar    1  UNL1        0.0030
     12 C          64.4860   85.5790   15.0239 C.2     1  UNL1        0.1958
     13 O          65.9255   85.1758   15.1474 O.2     1  UNL1       -0.2893
     14 C          63.4421   84.5472   14.7145 C.3     1  UNL1        0.1764
     15 N          63.0204   84.3091   13.2949 N.ar    1  UNL1       -0.3063
     16 C          62.7265   85.3672   12.2731 C.ar    1  UNL1        0.0981
     17 C          62.3430   84.6831   10.9944 C.ar    1  UNL1        0.1188
     18 N          62.3999   83.2022   11.2259 N.ar    1  UNL1       -0.2293
     19 C          62.8186   82.9710   12.6477 C.ar    1  UNL1        0.1199
     20 C          63.0030   81.6362   13.3065 C.3     1  UNL1        0.0507
     21 C          64.4160   81.5842   12.8058 C.3     1  UNL1        0.0075
     22 C          61.5900   81.6880   13.8072 C.3     1  UNL1        0.0075
     23 C          63.1874   80.3013   13.9654 C.3     1  UNL1        0.0075
     24 S          62.0929   89.4099   11.5011 S.O2    1  UNL1        0.0838
     25 O          61.0749   90.3094   12.1368 O.2     1  UNL1       -0.1493
     26 O          63.1110   88.5102   10.8652 O.2     1  UNL1       -0.1493
     27 C          60.3842   88.4728    9.7829 C.2     1  UNL1        0.4206
     28 O          60.8420   89.4855    8.7754 O.2     1  UNL1       -0.2248
     29 N          61.0097   88.4351   11.1457 N.am    1  UNL1       -0.1502
     30 H          60.7093   87.7704   11.8070 H       1  UNL1        0.1800
     31 C          59.1210   87.0632    8.0032 C.3     1  UNL1        0.2574
     32 O          59.3009   87.4981    9.4274 O.3     1  UNL1       -0.4296
     33 C          65.4986   93.4381   11.2662 C.3     1  UNL1        0.0330
     34 C          66.6652   93.2675   10.3389 C.3     1  UNL1        0.0049
     35 C          67.6020   92.1096   10.5173 C.3     1  UNL1        0.0004
     36 C          66.8951   94.2547    9.2331 C.3     1  UNL1        0.0004
@<TRIPOS>BOND
     1    31    32    1
     2    32    27    1
     3    27    28    2
     4    27    29   am
     5    29    24    1
     6    24    25    2
     7    24    26    2
     8    24     1    1
     9     1     2   ar
    10     2     3   ar
    11     3    33    1
    12    33    34    1
    13    34    35    1
    14    34    36    1
    15     3     4   ar
    16     4     5   ar
    17     5     6    1
    18     6     7   ar
    19     7     8   ar
    20     8     9   ar
    21     9    10   ar
    22    10    12    1
    23    12    13    2
    24    12    14    1
    25    14    15    1
    26    15    16   ar
    27    16    17   ar
    28    17    18   ar
    29    18    19   ar
    30    19    20    1
    31    20    21    1
    32    20    22    1
    33    20    23    1
    34    10    11   ar
    35     5     1   ar
    36    11     6   ar
    37    19    15   ar
    38    29    30    1
@<TRIPOS>MOLECULE
*****
 36 38 0 0 0
SMALL
GASTEIGER

@<TRIPOS>ATOM
      1 C          63.6435   90.1822   13.3392 C.ar    1  UNL1        0.1544
      2 S          64.3355   91.4497   12.9336 S.2     1  UNL1       -0.0714
      3 C          65.4175   91.7279   13.9347 C.ar    1  UNL1        0.0086
      4 C          65.3940   90.6323   14.9590 C.ar    1  UNL1        0.0040
      5 C          64.2977   89.6770   14.5909 C.ar    1  UNL1        0.0252
      6 C          63.9215   88.4346   15.3427 C.ar    1  UNL1        0.0019
      7 C          63.2264   88.5412   16.6676 C.ar    1  UNL1        0.0001
      8 C          62.8504   87.2988   17.4192 C.ar    1  UNL1        0.0001
      9 C          63.1694   85.9499   16.8460 C.ar    1  UNL1        0.0029
     10 C          63.8645   85.8433   15.5211 C.ar    1  UNL1        0.0367
     11 C          64.2406   87.0856   14.7694 C.ar    1  UNL1        0.0030
     12 C          64.1835   84.4943   14.9479 C.2     1  UNL1        0.1958
     13 O          64.1356   83.2771   15.8231 O.2     1  UNL1       -0.2893
     14 C          64.5504   84.3626   13.4995 C.3     1  UNL1        0.1764
     15 N          63.5071   84.5621   12.4403 N.ar    1  UNL1       -0.3063
     16 C          63.0318   85.8816   11.9084 C.ar    1  UNL1        0.0981
     17 C          61.9869   85.6122   10.8665 C.ar    1  UNL1        0.1188
     18 N          61.8164   84.1261   10.7545 N.ar    1  UNL1       -0.2293
     19 C          62.7560   83.4771   11.7272 C.ar    1  UNL1        0.1199
     20 C          62.9162   82.0022   11.9479 C.3     1  UNL1        0.0507
     21 C          62.0684   82.0947   13.1818 C.3     1  UNL1        0.0075
     22 C          63.7641   81.9096   10.7140 C.3     1  UNL1        0.0075
     23 C          63.0765   80.5272   12.1686 C.3     1  UNL1        0.0075
     24 S          62.4984   89.5337   12.6193 S.O2    1  UNL1        0.0838
     25 O          61.5531   90.0368   13.6697 O.2     1  UNL1       -0.1493
     26 O          63.4437   89.0305   11.5689 O.2     1  UNL1       -0.1493
     27 C          60.8909   89.4307   10.5808 C.2     1  UNL1        0.4206
     28 O          61.5737   90.6246    9.9822 O.2     1  UNL1       -0.2248
     29 N          61.3533   88.8852   11.8995 N.am    1  UNL1       -0.1502
     30 H          60.9053   88.1016   12.2924 H       1  UNL1        0.1800
     31 C          59.9707   88.1279    8.5300 C.3     1  UNL1        0.2574
     32 O          59.7459   88.7823    9.8609 O.3     1  UNL1       -0.4296
     33 C          66.3576   92.8965   13.9150 C.3     1  UNL1        0.0330
     34 C          67.7445   92.7527   14.4682 C.3     1  UNL1        0.0049
     35 C          68.7411   91.8720   13.7746 C.3     1  UNL1        0.0004
     36 C          68.1347   93.4898   15.7151 C.3     1  UNL1        0.0004
@<TRIPOS>BOND
     1    31    32    1
     2    32    27    1
     3    27    28    2
     4    27    29   am
     5    29    24    1
     6    24    25    2
     7    24    26    2
     8    24     1    1
     9     1     2   ar
    10     2     3   ar
    11     3    33    1
    12    33    34    1
    13    34    35    1
    14    34    36    1
    15     3     4   ar
    16     4     5   ar
    17     5     6    1
    18     6     7   ar
    19     7     8   ar
    20     8     9   ar
    21     9    10   ar
    22    10    12    1
    23    12    13    2
    24    12    14    1
    25    14    15    1
    26    15    16   ar
    27    16    17   ar
    28    17    18   ar
    29    18    19   ar
    30    19    20    1
    31    20    21    1
    32    20    22    1
    33    20    23    1
    34    10    11   ar
    35     5     1   ar
    36    11     6   ar
    37    19    15   ar
    38    29    30    1
@<TRIPOS>MOLECULE
*****
 36 38 0 0 0
SMALL
GASTEIGER

@<TRIPOS>ATOM
      1 C          61.7045   86.7600   10.6678 C.ar    1  UNL1        0.1544
      2 S          61.6310   85.2683   10.8080 S.2     1  UNL1       -0.0714
      3 C          62.5422   84.8627   11.9284 C.ar    1  UNL1        0.0086
      4 C          63.1787   86.1036   12.4806 C.ar    1  UNL1        0.0040
      5 C          62.6610   87.2762   11.7014 C.ar    1  UNL1        0.0252
      6 C          63.0342   88.7128   11.9180 C.ar    1  UNL1        0.0019
      7 C          62.7857   89.7234   10.8378 C.ar    1  UNL1        0.0001
      8 C          63.1589   91.1599   11.0544 C.ar    1  UNL1        0.0001
      9 C          63.7808   91.5859   12.3512 C.ar    1  UNL1        0.0029
     10 C          64.0294   90.5754   13.4315 C.ar    1  UNL1        0.0367
     11 C          63.6561   89.1389   13.2149 C.ar    1  UNL1        0.0030
     12 C          64.6512   91.0014   14.7283 C.2     1  UNL1        0.1958
     13 O          63.8158   91.6784   15.7740 O.2     1  UNL1       -0.2893
     14 C          66.1086   90.7504   14.9795 C.3     1  UNL1        0.1764
     15 N          67.0461   91.9052   15.1727 N.ar    1  UNL1       -0.3063
     16 C          67.6001   92.3814   16.4828 C.ar    1  UNL1        0.0981
     17 C          68.4907   93.5571   16.2096 C.ar    1  UNL1        0.1188
     18 N          68.4872   93.8075   14.7307 N.ar    1  UNL1       -0.2293
     19 C          67.5944   92.7865   14.0898 C.ar    1  UNL1        0.1199
     20 C          67.3013   92.6678   12.6236 C.3     1  UNL1        0.0507
     21 C          68.3273   91.5800   12.5065 C.3     1  UNL1        0.0075
     22 C          66.2752   93.7557   12.7405 C.3     1  UNL1        0.0075
     23 C          67.0082   92.5491   11.1572 C.3     1  UNL1        0.0075
     24 S          60.9532   87.5896    9.6691 S.O2    1  UNL1        0.0838
     25 O          62.0016   87.2969    8.6371 O.2     1  UNL1       -0.1493
     26 O          59.9047   87.8824   10.7012 O.2     1  UNL1       -0.1493
     27 C          59.3341   87.7537    7.6439 C.2     1  UNL1        0.4206
     28 O          59.2176   86.2585    7.6159 O.2     1  UNL1       -0.2248
     29 N          60.2019   88.4193    8.6706 N.am    1  UNL1       -0.1502
     30 H          60.2784   89.4006    8.6890 H       1  UNL1        0.1800
     31 C          59.1827   89.8555    6.1242 C.3     1  UNL1        0.2574
     32 O          58.5827   88.5833    6.6453 O.3     1  UNL1       -0.4296
     33 C          62.7758   83.4621   12.4118 C.3     1  UNL1        0.0330
     34 C          63.2884   82.4176   11.4650 C.3     1  UNL1        0.0049
     35 C          62.8156   80.9992   11.5856 C.3     1  UNL1        0.0004
     36 C          64.2738   82.7916   10.3976 C.3     1  UNL1        0.0004
@<TRIPOS>BOND
     1    31    32    1
     2    32    27    1
     3    27    28    2
     4    27    29   am
     5    29    24    1
     6    24    25    2
     7    24    26    2
     8    24     1    1
     9     1     2   ar
    10     2     3   ar
    11     3    33    1
    12    33    34    1
    13    34    35    1
    14    34    36    1
    15     3     4   ar
    16     4     5   ar
    17     5     6    1
    18     6     7   ar
    19     7     8   ar
    20     8     9   ar
    21     9    10   ar
    22    10    12    1
    23    12    13    2
    24    12    14    1
    25    14    15    1
    26    15    16   ar
    27    16    17   ar
    28    17    18   ar
    29    18    19   ar
    30    19    20    1
    31    20    21    1
    32    20    22    1
    33    20    23    1
    34    10    11   ar
    35     5     1   ar
    36    11     6   ar
    37    19    15   ar
    38    29    30    1
@<TRIPOS>MOLECULE
*****
 36 38 0 0 0
SMALL
GASTEIGER

@<TRIPOS>ATOM
      1 C          62.1811   86.0980   11.2302 C.ar    1  UNL1        0.1544
      2 S          62.1197   84.6169   11.0013 S.2     1  UNL1       -0.0714
      3 C          63.0112   83.9546   12.0097 C.ar    1  UNL1        0.0086
      4 C          63.6236   85.0266   12.8617 C.ar    1  UNL1        0.0040
      5 C          63.1105   86.3512   12.3800 C.ar    1  UNL1        0.0252
      6 C          63.4648   87.6935   12.9483 C.ar    1  UNL1        0.0019
      7 C          63.8314   87.8215   14.3971 C.ar    1  UNL1        0.0001
      8 C          64.1856   89.1637   14.9654 C.ar    1  UNL1        0.0001
      9 C          64.1732   90.3779   14.0848 C.ar    1  UNL1        0.0029
     10 C          63.8066   90.2500   12.6360 C.ar    1  UNL1        0.0367
     11 C          63.4524   88.9078   12.0677 C.ar    1  UNL1        0.0030
     12 C          63.7942   91.4642   11.7554 C.2     1  UNL1        0.1958
     13 O          62.8223   91.5549   10.6165 O.2     1  UNL1       -0.2893
     14 C          64.7538   92.5878   12.0137 C.3     1  UNL1        0.1764
     15 N          66.2241   92.3828   11.7988 N.ar    1  UNL1       -0.3063
     16 C          66.9024   92.1832   10.4759 C.ar    1  UNL1        0.0981
     17 C          68.3718   92.0185   10.7286 C.ar    1  UNL1        0.1188
     18 N          68.6016   92.1163   12.2077 N.ar    1  UNL1       -0.2293
     19 C          67.2742   92.3415   12.8692 C.ar    1  UNL1        0.1199
     20 C          67.0384   92.4979   14.3421 C.3     1  UNL1        0.0507
     21 C          66.6405   93.9280   14.1267 C.3     1  UNL1        0.0075
     22 C          67.4364   91.0678   14.5577 C.3     1  UNL1        0.0075
     23 C          66.8026   92.6543   15.8153 C.3     1  UNL1        0.0075
     24 S          61.4426   87.1425   10.4468 S.O2    1  UNL1        0.0838
     25 O          62.4280   86.9981    9.3252 O.2     1  UNL1       -0.1493
     26 O          60.4572   87.2870   11.5685 O.2     1  UNL1       -0.1493
     27 C          59.7711   87.7786    8.5624 C.2     1  UNL1        0.4206
     28 O          59.5765   86.3256    8.2446 O.2     1  UNL1       -0.2248
     29 N          60.7041   88.1870    9.6636 N.am    1  UNL1       -0.1502
     30 H          60.8318   89.1407    9.8722 H       1  UNL1        0.1800
     31 C          59.5871   89.3140    6.4747 C.3     1  UNL1        0.2574
     32 O          59.0325   88.8230    7.7790 O.3     1  UNL1       -0.4296
     33 C          63.2487   82.4795   12.1426 C.3     1  UNL1        0.0330
     34 C          62.5724   81.7065   13.2358 C.3     1  UNL1        0.0049
     35 C          62.4147   80.2197   13.1160 C.3     1  UNL1        0.0004
     36 C          62.0539   82.4204   14.4490 C.3     1  UNL1        0.0004
@<TRIPOS>BOND
     1    31    32    1
     2    32    27    1
     3    27    28    2
     4    27    29   am
     5    29    24    1
     6    24    25    2
     7    24    26    2
     8    24     1    1
     9     1     2   ar
    10     2     3   ar
    11     3    33    1
    12    33    34    1
    13    34    35    1
    14    34    36    1
    15     3     4   ar
    16     4     5   ar
    17     5     6    1
    18     6     7   ar
    19     7     8   ar
    20     8     9   ar
    21     9    10   ar
    22    10    12    1
    23    12    13    2
    24    12    14    1
    25    14    15    1
    26    15    16   ar
    27    16    17   ar
    28    17    18   ar
    29    18    19   ar
    30    19    20    1
    31    20    21    1
    32    20    22    1
    33    20    23    1
    34    10    11   ar
    35     5     1   ar
    36    11     6   ar
    37    19    15   ar
    38    29    30    1
@<TRIPOS>MOLECULE
*****
 36 38 0 0 0
SMALL
GASTEIGER

@<TRIPOS>ATOM
      1 C          63.3504   84.6864   12.7457 C.ar    1  UNL1        0.1544
      2 S          63.7005   83.2531   12.4752 S.2     1  UNL1       -0.0714
      3 C          63.5775   83.0166   10.9990 C.ar    1  UNL1        0.0086
      4 C          63.1514   84.3036   10.3573 C.ar    1  UNL1        0.0040
      5 C          63.0110   85.3356   11.4368 C.ar    1  UNL1        0.0252
      6 C          62.6029   86.7659   11.2416 C.ar    1  UNL1        0.0019
      7 C          61.6422   87.1291   10.1485 C.ar    1  UNL1        0.0001
      8 C          61.2341   88.5593    9.9533 C.ar    1  UNL1        0.0001
      9 C          61.7868   89.6261   10.8513 C.ar    1  UNL1        0.0029
     10 C          62.7475   89.2629   11.9445 C.ar    1  UNL1        0.0367
     11 C          63.1556   87.8327   12.1396 C.ar    1  UNL1        0.0030
     12 C          63.3002   90.3297   12.8425 C.2     1  UNL1        0.1958
     13 O          62.9172   90.3622   14.2923 O.2     1  UNL1       -0.2893
     14 C          64.2359   91.3640   12.2906 C.3     1  UNL1        0.1764
     15 N          65.5298   91.6551   12.9914 N.ar    1  UNL1       -0.3063
     16 C          65.9316   91.1513   14.3459 C.ar    1  UNL1        0.0981
     17 C          67.2992   91.6860   14.6524 C.ar    1  UNL1        0.1188
     18 N          67.7425   92.5202   13.4873 N.ar    1  UNL1       -0.2293
     19 C          66.6490   92.5012   12.4607 C.ar    1  UNL1        0.1199
     20 C          66.6708   93.2047   11.1361 C.3     1  UNL1        0.0507
     21 C          65.9426   94.3678   11.7417 C.3     1  UNL1        0.0075
     22 C          67.3990   92.0415   10.5304 C.3     1  UNL1        0.0075
     23 C          66.6926   93.9081    9.8114 C.3     1  UNL1        0.0075
     24 S          63.3413   85.3532   14.0893 S.O2    1  UNL1        0.0838
     25 O          61.8441   85.2690   14.1211 O.2     1  UNL1       -0.1493
     26 O          64.8387   85.4376   14.0576 O.2     1  UNL1       -0.1493
     27 C          62.7736   85.2997   16.6240 C.2     1  UNL1        0.4206
     28 O          62.2238   83.9124   16.4715 O.2     1  UNL1       -0.2248
     29 N          63.3323   86.0201   15.4328 N.am    1  UNL1       -0.1502
     30 H          63.6931   86.9306   15.5329 H       1  UNL1        0.1800
     31 C          62.7190   87.4628   18.0620 C.3     1  UNL1        0.2574
     32 O          62.7645   85.9665   17.9676 O.3     1  UNL1       -0.4296
     33 C          63.8353   81.7205   10.2893 C.3     1  UNL1        0.0330
     34 C          63.0850   80.4845   10.6886 C.3     1  UNL1        0.0049
     35 C          62.6609   80.2924   12.1145 C.3     1  UNL1        0.0004
     36 C          62.7588   79.4406    9.6619 C.3     1  UNL1        0.0004
@<TRIPOS>BOND
     1    31    32    1
     2    32    27    1
     3    27    28    2
     4    27    29   am
     5    29    24    1
     6    24    25    2
     7    24    26    2
     8    24     1    1
     9     1     2   ar
    10     2     3   ar
    11     3    33    1
    12    33    34    1
    13    34    35    1
    14    34    36    1
    15     3     4   ar
    16     4     5   ar
    17     5     6    1
    18     6     7   ar
    19     7     8   ar
    20     8     9   ar
    21     9    10   ar
    22    10    12    1
    23    12    13    2
    24    12    14    1
    25    14    15    1
    26    15    16   ar
    27    16    17   ar
    28    17    18   ar
    29    18    19   ar
    30    19    20    1
    31    20    21    1
    32    20    22    1
    33    20    23    1
    34    10    11   ar
    35     5     1   ar
    36    11     6   ar
    37    19    15   ar
    38    29    30    1
@<TRIPOS>MOLECULE
*****
 36 38 0 0 0
SMALL
GASTEIGER

@<TRIPOS>ATOM
      1 C          61.2247   87.7845    9.4459 C.ar    1  UNL1        0.1544
      2 S          60.1538   87.5759    8.4165 S.2     1  UNL1       -0.0714
      3 C          59.6812   88.9241    7.9594 C.ar    1  UNL1        0.0086
      4 C          60.4601   89.9660    8.7063 C.ar    1  UNL1        0.0040
      5 C          61.4140   89.2617    9.6250 C.ar    1  UNL1        0.0252
      6 C          62.3865   89.9191   10.5589 C.ar    1  UNL1        0.0019
      7 C          63.2481   91.0465   10.0726 C.ar    1  UNL1        0.0001
      8 C          64.2206   91.7040   11.0064 C.ar    1  UNL1        0.0001
      9 C          64.3314   91.2340   12.4266 C.ar    1  UNL1        0.0029
     10 C          63.4698   90.1066   12.9129 C.ar    1  UNL1        0.0367
     11 C          62.4973   89.4492   11.9790 C.ar    1  UNL1        0.0030
     12 C          63.5806   89.6366   14.3330 C.2     1  UNL1        0.1958
     13 O          63.0707   90.4981   15.4501 O.2     1  UNL1       -0.2893
     14 C          64.2013   88.3052   14.6361 C.3     1  UNL1        0.1764
     15 N          63.6762   87.4732   15.7685 N.ar    1  UNL1       -0.3063
     16 C          63.0460   87.9934   17.0264 C.ar    1  UNL1        0.0981
     17 C          62.6695   86.8167   17.8771 C.ar    1  UNL1        0.1188
     18 N          63.0670   85.5693   17.1450 N.ar    1  UNL1       -0.2293
     19 C          63.6892   85.9750   15.8417 C.ar    1  UNL1        0.1199
     20 C          64.2295   85.0458   14.7956 C.3     1  UNL1        0.0507
     21 C          62.8587   84.4695   14.5993 C.3     1  UNL1        0.0075
     22 C          65.6005   85.6220   14.9918 C.3     1  UNL1        0.0075
     23 C          64.7699   84.1166   13.7494 C.3     1  UNL1        0.0075
     24 S          61.9746   86.7054   10.1691 S.O2    1  UNL1        0.0838
     25 O          60.8893   86.6436   11.2026 O.2     1  UNL1       -0.1493
     26 O          63.0601   86.7671    9.1356 O.2     1  UNL1       -0.1493
     27 C          63.2582   84.4468   10.1345 C.2     1  UNL1        0.4206
     28 O          63.0417   84.3465    8.6536 O.2     1  UNL1       -0.2248
     29 N          62.7246   85.6263   10.8923 N.am    1  UNL1       -0.1502
     30 H          62.8667   85.6921   11.8642 H       1  UNL1        0.1800
     31 C          63.4418   81.9806   10.9309 C.3     1  UNL1        0.2574
     32 O          64.0082   83.3676   10.8576 O.3     1  UNL1       -0.4296
     33 C          58.6167   89.1847    6.9353 C.3     1  UNL1        0.0330
     34 C          58.8245   90.2394    5.8891 C.3     1  UNL1        0.0049
     35 C          57.6511   91.0022    5.3496 C.3     1  UNL1        0.0004
     36 C          60.2059   90.5312    5.3824 C.3     1  UNL1        0.0004
@<TRIPOS>BOND
     1    31    32    1
     2    32    27    1
     3    27    28    2
     4    27    29   am
     5    29    24    1
     6    24    25    2
     7    24    26    2
     8    24     1    1
     9     1     2   ar
    10     2     3   ar
    11     3    33    1
    12    33    34    1
    13    34    35    1
    14    34    36    1
    15     3     4   ar
    16     4     5   ar
    17     5     6    1
    18     6     7   ar
    19     7     8   ar
    20     8     9   ar
    21     9    10   ar
    22    10    12    1
    23    12    13    2
    24    12    14    1
    25    14    15    1
    26    15    16   ar
    27    16    17   ar
    28    17    18   ar
    29    18    19   ar
    30    19    20    1
    31    20    21    1
    32    20    22    1
    33    20    23    1
    34    10    11   ar
    35     5     1   ar
    36    11     6   ar
    37    19    15   ar
    38    29    30    1
