@<TRIPOS>MOLECULE
*****
 30 33 0 0 0
SMALL
GASTEIGER

@<TRIPOS>ATOM
      1 C          59.4238   88.5839    7.5583 C.ar    1  UNL1        0.2271
      2 C          59.6166   87.1011    7.4394 C.ar    1  UNL1        0.0896
      3 C          60.6660   86.4130    8.2613 C.ar    1  UNL1        0.1735
      4 F          60.8589   84.9302    8.1423 F       1  UNL1       -0.2016
      5 C          61.5225   87.2077    9.2019 C.ar    1  UNL1        0.1851
      6 F          62.5719   86.5195   10.0237 F       1  UNL1       -0.2002
      7 C          61.3297   88.6904    9.3208 C.ar    1  UNL1        0.1140
      8 N          60.2803   89.3786    8.4991 N.ar    1  UNL1       -0.2093
      9 C          62.1862   89.4851   10.2616 C.ar    1  UNL1        0.0199
     10 C          62.6785   90.8442    9.8611 C.ar    1  UNL1        0.0047
     11 C          63.5350   91.6388   10.8018 C.ar    1  UNL1        0.0366
     12 C          63.8992   91.0743   12.1430 C.ar    1  UNL1        0.1343
     13 C          63.4070   89.7151   12.5434 C.ar    1  UNL1        0.0119
     14 C          62.5505   88.9206   11.6027 C.ar    1  UNL1        0.0003
     15 C          63.7712   89.1506   13.8845 C.3     1  UNL1        0.0331
     16 C          64.6277   89.9452   14.8252 C.3     1  UNL1        0.0483
     17 C          65.1200   91.3044   14.4248 C.3     1  UNL1        0.1666
     18 O          64.7558   91.8689   13.0837 O.3     1  UNL1       -0.4795
     19 C          65.9765   92.0990   15.3655 C.3     1  UNL1        0.0494
     20 C          67.4354   91.7785   15.5039 C.3     1  UNL1        0.0454
     21 C          68.4281   92.3756   14.5511 C.2     1  UNL1        0.0505
     22 O          68.4525   91.9327   13.1182 O.co2   1  UNL1       -0.5492
     23 O          69.3965   93.4156   15.0313 O.co2   1  UNL1       -0.5492
     24 O          58.3744   89.2720    6.7366 O.3     1  UNL1       -0.4638
     25 C          59.2894   92.0233    4.5670 C.3     1  UNL1        0.1225
     26 C          60.0386   90.9215    5.2560 C.3     1  UNL1        0.0733
     27 C          58.7534   90.4117    5.8379 C.3     1  UNL1        0.1724
     28 C          58.0043   91.5135    5.1488 C.3     1  UNL1        0.0733
     29 C          59.8103   92.9387    2.1920 C.3     1  UNL1        0.1740
     30 O          59.6684   93.1629    3.6683 O.3     1  UNL1       -0.3533
@<TRIPOS>UNITY_ATOM_ATTR
22 1
charge -1
@<TRIPOS>BOND
     1    29    30    1
     2    25    30    1
     3    25    26    1
     4    26    27    1
     5    27    24    1
     6    24     1    1
     7     1     2   ar
     8     2     3   ar
     9     3     4    1
    10     3     5   ar
    11     5     6    1
    12     5     7   ar
    13     7     9    1
    14     9    10   ar
    15    10    11   ar
    16    11    12   ar
    17    12    13   ar
    18    13    14   ar
    19    13    15    1
    20    15    16    1
    21    16    17    1
    22    17    19    1
    23    19    20    1
    24    20    21    1
    25    21    22   ar
    26    21    23   ar
    27    17    18    1
    28     7     8   ar
    29    27    28    1
    30    28    25    1
    31     8     1   ar
    32    14     9   ar
    33    18    12    1
@<TRIPOS>MOLECULE
*****
 30 33 0 0 0
SMALL
GASTEIGER

@<TRIPOS>ATOM
      1 C          61.8266   85.9978    8.9138 C.ar    1  UNL1        0.2271
      2 C          60.5224   86.3705    8.2734 C.ar    1  UNL1        0.0896
      3 C          59.9579   87.7467    8.4675 C.ar    1  UNL1        0.1735
      4 F          58.6537   88.1195    7.8271 F       1  UNL1       -0.2016
      5 C          60.6975   88.7500    9.3019 C.ar    1  UNL1        0.1851
      6 F          60.1330   90.1261    9.4960 F       1  UNL1       -0.2002
      7 C          62.0017   88.3772    9.9423 C.ar    1  UNL1        0.1140
      8 N          62.5663   87.0011    9.7482 N.ar    1  UNL1       -0.2093
      9 C          62.7414   89.3805   10.7768 C.ar    1  UNL1        0.0199
     10 C          63.0722   90.7293   10.2100 C.ar    1  UNL1        0.0047
     11 C          63.8118   91.7326   11.0444 C.ar    1  UNL1        0.0366
     12 C          64.2206   91.3871   12.4457 C.ar    1  UNL1        0.1343
     13 C          63.8898   90.0383   13.0125 C.ar    1  UNL1        0.0119
     14 C          63.1502   89.0350   12.1780 C.ar    1  UNL1        0.0003
     15 C          64.2986   89.6928   14.4137 C.3     1  UNL1        0.0331
     16 C          65.0382   90.6961   15.2482 C.3     1  UNL1        0.0483
     17 C          65.3691   92.0450   14.6814 C.3     1  UNL1        0.1666
     18 O          64.9602   92.3905   13.2801 O.3     1  UNL1       -0.4795
     19 C          66.1087   93.0482   15.5158 C.3     1  UNL1        0.0494
     20 C          67.4394   92.6939   16.1105 C.3     1  UNL1        0.0454
     21 C          68.7029   93.1807   15.4650 C.2     1  UNL1        0.0505
     22 O          69.4991   94.2776   16.1076 O.co2   1  UNL1       -0.5492
     23 O          69.1702   92.5705   14.1769 O.co2   1  UNL1       -0.5492
     24 O          62.3912   84.6217    8.7197 O.3     1  UNL1       -0.4638
     25 C          63.9212   82.8831   11.5037 C.3     1  UNL1        0.1225
     26 C          62.7834   83.8488   11.3524 C.3     1  UNL1        0.0733
     27 C          63.0249   83.9016    9.8729 C.3     1  UNL1        0.1724
     28 C          64.1628   82.9358   10.0242 C.3     1  UNL1        0.0733
     29 C          63.7767   81.1279   13.4137 C.3     1  UNL1        0.1740
     30 O          64.5549   82.1630   12.6568 O.3     1  UNL1       -0.3533
@<TRIPOS>UNITY_ATOM_ATTR
22 1
charge -1
@<TRIPOS>BOND
     1    29    30    1
     2    25    30    1
     3    25    26    1
     4    26    27    1
     5    27    24    1
     6    24     1    1
     7     1     2   ar
     8     2     3   ar
     9     3     4    1
    10     3     5   ar
    11     5     6    1
    12     5     7   ar
    13     7     9    1
    14     9    10   ar
    15    10    11   ar
    16    11    12   ar
    17    12    13   ar
    18    13    14   ar
    19    13    15    1
    20    15    16    1
    21    16    17    1
    22    17    19    1
    23    19    20    1
    24    20    21    1
    25    21    22   ar
    26    21    23   ar
    27    17    18    1
    28     7     8   ar
    29    27    28    1
    30    28    25    1
    31     8     1   ar
    32    14     9   ar
    33    18    12    1
@<TRIPOS>MOLECULE
*****
 30 33 0 0 0
SMALL
GASTEIGER

@<TRIPOS>ATOM
      1 C          63.9667   83.5909   13.2722 C.ar    1  UNL1        0.2271
      2 C          64.6901   84.2454   14.4117 C.ar    1  UNL1        0.0896
      3 C          64.6686   85.7384   14.5550 C.ar    1  UNL1        0.1735
      4 F          65.3920   86.3929   15.6945 F       1  UNL1       -0.2016
      5 C          63.9238   86.5768   13.5590 C.ar    1  UNL1        0.1851
      6 F          63.9023   88.0699   13.7023 F       1  UNL1       -0.2002
      7 C          63.2004   85.9223   12.4195 C.ar    1  UNL1        0.1140
      8 N          63.2218   84.4294   12.2761 N.ar    1  UNL1       -0.2093
      9 C          62.4555   86.7609   11.4235 C.ar    1  UNL1        0.0199
     10 C          62.5771   88.2554   11.4612 C.ar    1  UNL1        0.0047
     11 C          61.8323   89.0939   10.4651 C.ar    1  UNL1        0.0366
     12 C          60.9657   88.4377    9.4314 C.ar    1  UNL1        0.1343
     13 C          60.8441   86.9432    9.3937 C.ar    1  UNL1        0.0119
     14 C          61.5889   86.1048   10.3897 C.ar    1  UNL1        0.0003
     15 C          59.9775   86.2871    8.3599 C.3     1  UNL1        0.0331
     16 C          59.2327   87.1255    7.3639 C.3     1  UNL1        0.0483
     17 C          59.3543   88.6202    7.4015 C.3     1  UNL1        0.1666
     18 O          60.2209   89.2763    8.4353 O.3     1  UNL1       -0.4795
     19 C          58.6095   89.4586    6.4055 C.3     1  UNL1        0.0494
     20 C          59.3222   90.5476    5.6597 C.3     1  UNL1        0.0454
     21 C          58.5398   91.6629    5.0320 C.2     1  UNL1        0.0505
     22 O          59.2568   92.8026    4.3710 O.co2   1  UNL1       -0.5492
     23 O          57.0404   91.6384    5.0654 O.co2   1  UNL1       -0.5492
     24 O          63.9882   82.0979   13.1288 O.3     1  UNL1       -0.4638
     25 C          61.0372   80.1591   13.9328 C.3     1  UNL1        0.1225
     26 C          62.3002   79.8998   13.1663 C.3     1  UNL1        0.0733
     27 C          62.7658   81.2948   13.4618 C.3     1  UNL1        0.1724
     28 C          61.5027   81.5540   14.2283 C.3     1  UNL1        0.0733
     29 C          58.5185   80.0505   14.5609 C.3     1  UNL1        0.1740
     30 O          59.8148   79.3560   14.2658 O.3     1  UNL1       -0.3533
@<TRIPOS>UNITY_ATOM_ATTR
22 1
charge -1
@<TRIPOS>BOND
     1    29    30    1
     2    25    30    1
     3    25    26    1
     4    26    27    1
     5    27    24    1
     6    24     1    1
     7     1     2   ar
     8     2     3   ar
     9     3     4    1
    10     3     5   ar
    11     5     6    1
    12     5     7   ar
    13     7     9    1
    14     9    10   ar
    15    10    11   ar
    16    11    12   ar
    17    12    13   ar
    18    13    14   ar
    19    13    15    1
    20    15    16    1
    21    16    17    1
    22    17    19    1
    23    19    20    1
    24    20    21    1
    25    21    22   ar
    26    21    23   ar
    27    17    18    1
    28     7     8   ar
    29    27    28    1
    30    28    25    1
    31     8     1   ar
    32    14     9   ar
    33    18    12    1
@<TRIPOS>MOLECULE
*****
 30 33 0 0 0
SMALL
GASTEIGER

@<TRIPOS>ATOM
      1 C          66.2008   92.5833   13.8305 C.ar    1  UNL1        0.2271
      2 C          65.8890   93.0030   15.2364 C.ar    1  UNL1        0.0896
      3 C          65.0126   92.1437   16.0988 C.ar    1  UNL1        0.1735
      4 F          64.7008   92.5633   17.5047 F       1  UNL1       -0.2016
      5 C          64.4480   90.8648   15.5551 C.ar    1  UNL1        0.1851
      6 F          63.5715   90.0055   16.4175 F       1  UNL1       -0.2002
      7 C          64.7597   90.4451   14.1492 C.ar    1  UNL1        0.1140
      8 N          65.6361   91.3043   13.2869 N.ar    1  UNL1       -0.2093
      9 C          64.1951   89.1661   13.6056 C.ar    1  UNL1        0.0199
     10 C          63.3171   89.1909   12.3897 C.ar    1  UNL1        0.0047
     11 C          62.7524   87.9120   11.8461 C.ar    1  UNL1        0.0366
     12 C          63.0658   86.6083   12.5185 C.ar    1  UNL1        0.1343
     13 C          63.9438   86.5834   13.7343 C.ar    1  UNL1        0.0119
     14 C          64.5085   87.8624   14.2779 C.ar    1  UNL1        0.0003
     15 C          64.2572   85.2797   14.4067 C.3     1  UNL1        0.0331
     16 C          63.6926   84.0008   13.8631 C.3     1  UNL1        0.0483
     17 C          62.8146   84.0255   12.6472 C.3     1  UNL1        0.1666
     18 O          62.5012   85.3293   11.9748 O.3     1  UNL1       -0.4795
     19 C          62.2499   82.7466   12.1036 C.3     1  UNL1        0.0494
     20 C          62.8492   81.4315   12.5057 C.3     1  UNL1        0.0454
     21 C          62.3553   80.7265   13.7341 C.2     1  UNL1        0.0505
     22 O          60.9369   80.9114   14.1857 O.co2   1  UNL1       -0.5492
     23 O          63.2798   79.8367   14.5108 O.co2   1  UNL1       -0.5492
     24 O          67.0772   93.4425   12.9682 O.3     1  UNL1       -0.4638
     25 C          65.5961   95.6152   10.4782 C.3     1  UNL1        0.1225
     26 C          65.7975   94.1345   10.6090 C.3     1  UNL1        0.0733
     27 C          66.4637   94.3425   11.9368 C.3     1  UNL1        0.1724
     28 C          66.2623   95.8232   11.8059 C.3     1  UNL1        0.0733
     29 C          65.7310   96.8297    8.1855 C.3     1  UNL1        0.1740
     30 O          64.9827   96.5151    9.4468 O.3     1  UNL1       -0.3533
@<TRIPOS>UNITY_ATOM_ATTR
22 1
charge -1
@<TRIPOS>BOND
     1    29    30    1
     2    25    30    1
     3    25    26    1
     4    26    27    1
     5    27    24    1
     6    24     1    1
     7     1     2   ar
     8     2     3   ar
     9     3     4    1
    10     3     5   ar
    11     5     6    1
    12     5     7   ar
    13     7     9    1
    14     9    10   ar
    15    10    11   ar
    16    11    12   ar
    17    12    13   ar
    18    13    14   ar
    19    13    15    1
    20    15    16    1
    21    16    17    1
    22    17    19    1
    23    19    20    1
    24    20    21    1
    25    21    22   ar
    26    21    23   ar
    27    17    18    1
    28     7     8   ar
    29    27    28    1
    30    28    25    1
    31     8     1   ar
    32    14     9   ar
    33    18    12    1
@<TRIPOS>MOLECULE
*****
 30 33 0 0 0
SMALL
GASTEIGER

@<TRIPOS>ATOM
      1 C          59.3092   88.4277    7.4757 C.ar    1  UNL1        0.2271
      2 C          59.5389   87.0083    7.0483 C.ar    1  UNL1        0.0896
      3 C          60.6288   86.1996    7.6874 C.ar    1  UNL1        0.1735
      4 F          60.8585   84.7803    7.2599 F       1  UNL1       -0.2016
      5 C          61.4889   86.8103    8.7538 C.ar    1  UNL1        0.1851
      6 F          62.5787   86.0016    9.3928 F       1  UNL1       -0.2002
      7 C          61.2592   88.2296    9.1812 C.ar    1  UNL1        0.1140
      8 N          60.1694   89.0383    8.5422 N.ar    1  UNL1       -0.2093
      9 C          62.1193   88.8403   10.2477 C.ar    1  UNL1        0.0199
     10 C          62.3098   88.1306   11.5553 C.ar    1  UNL1        0.0047
     11 C          63.1699   88.7413   12.6217 C.ar    1  UNL1        0.0366
     12 C          63.8396   90.0616   12.3805 C.ar    1  UNL1        0.1343
     13 C          63.6491   90.7713   11.0728 C.ar    1  UNL1        0.0119
     14 C          62.7890   90.1606   10.0064 C.ar    1  UNL1        0.0003
     15 C          64.3188   92.0916   10.8315 C.3     1  UNL1        0.0331
     16 C          65.1789   92.7023   11.8979 C.3     1  UNL1        0.0483
     17 C          65.3694   91.9926   13.2057 C.3     1  UNL1        0.1666
     18 O          64.6997   90.6723   13.4470 O.3     1  UNL1       -0.4795
     19 C          66.2295   92.6033   14.2721 C.3     1  UNL1        0.0494
     20 C          66.0852   92.1594   15.6977 C.3     1  UNL1        0.0454
     21 C          64.7470   92.2258   16.3720 C.2     1  UNL1        0.0505
     22 O          64.5227   93.1884   17.5003 O.co2   1  UNL1       -0.5492
     23 O          63.6331   91.3296   15.9181 O.co2   1  UNL1       -0.5492
     24 O          58.2195   89.2364    6.8367 O.3     1  UNL1       -0.4638
     25 C          59.0547   91.8755    4.5019 C.3     1  UNL1        0.1225
     26 C          57.7908   91.3940    5.1506 C.3     1  UNL1        0.0733
     27 C          58.5654   90.3295    5.8696 C.3     1  UNL1        0.1724
     28 C          59.8293   90.8111    5.2209 C.3     1  UNL1        0.0733
     29 C          60.7079   92.9341    2.8001 C.3     1  UNL1        0.1740
     30 O          59.4007   92.9686    3.5348 O.3     1  UNL1       -0.3533
@<TRIPOS>UNITY_ATOM_ATTR
22 1
charge -1
@<TRIPOS>BOND
     1    29    30    1
     2    25    30    1
     3    25    26    1
     4    26    27    1
     5    27    24    1
     6    24     1    1
     7     1     2   ar
     8     2     3   ar
     9     3     4    1
    10     3     5   ar
    11     5     6    1
    12     5     7   ar
    13     7     9    1
    14     9    10   ar
    15    10    11   ar
    16    11    12   ar
    17    12    13   ar
    18    13    14   ar
    19    13    15    1
    20    15    16    1
    21    16    17    1
    22    17    19    1
    23    19    20    1
    24    20    21    1
    25    21    22   ar
    26    21    23   ar
    27    17    18    1
    28     7     8   ar
    29    27    28    1
    30    28    25    1
    31     8     1   ar
    32    14     9   ar
    33    18    12    1
@<TRIPOS>MOLECULE
*****
 30 33 0 0 0
SMALL
GASTEIGER

@<TRIPOS>ATOM
      1 C          64.1077   91.1902   13.6283 C.ar    1  UNL1        0.2271
      2 C          63.9119   91.5892   15.0610 C.ar    1  UNL1        0.0896
      3 C          63.7279   90.5369   16.1141 C.ar    1  UNL1        0.1735
      4 F          63.5322   90.9359   17.5468 F       1  UNL1       -0.2016
      5 C          63.7397   89.0858   15.7346 C.ar    1  UNL1        0.1851
      6 F          63.5557   88.0336   16.7877 F       1  UNL1       -0.2002
      7 C          63.9354   88.6869   14.3019 C.ar    1  UNL1        0.1140
      8 N          64.1194   89.7390   13.2488 N.ar    1  UNL1       -0.2093
      9 C          63.9471   87.2357   13.9224 C.ar    1  UNL1        0.0199
     10 C          64.6735   86.2421   14.7797 C.ar    1  UNL1        0.0047
     11 C          64.6852   84.7910   14.4002 C.ar    1  UNL1        0.0366
     12 C          63.9705   84.3334   13.1633 C.ar    1  UNL1        0.1343
     13 C          63.2440   85.3270   12.3060 C.ar    1  UNL1        0.0119
     14 C          63.2323   86.7781   12.6856 C.ar    1  UNL1        0.0003
     15 C          62.5293   84.8695   11.0691 C.3     1  UNL1        0.0331
     16 C          62.5410   83.4184   10.6896 C.3     1  UNL1        0.0483
     17 C          63.2674   82.4247   11.5469 C.3     1  UNL1        0.1666
     18 O          63.9822   82.8822   12.7838 O.3     1  UNL1       -0.4795
     19 C          63.2791   80.9736   11.1674 C.3     1  UNL1        0.0494
     20 C          62.5495   79.9715   12.0122 C.3     1  UNL1        0.0454
     21 C          62.3116   80.2485   13.4670 C.2     1  UNL1        0.0505
     22 O          63.4405   80.1294   14.4476 O.co2   1  UNL1       -0.5492
     23 O          60.9448   80.6445   13.9413 O.co2   1  UNL1       -0.5492
     24 O          64.2917   92.2423   12.5752 O.3     1  UNL1       -0.4638
     25 C          67.4663   92.5525   10.8608 C.3     1  UNL1        0.1225
     26 C          66.0265   92.5890   10.4416 C.3     1  UNL1        0.0733
     27 C          65.6066   92.3708   11.8651 C.3     1  UNL1        0.1724
     28 C          67.0465   92.3343   12.2842 C.3     1  UNL1        0.0733
     29 C          68.8745   92.3791    8.6844 C.3     1  UNL1        0.1740
     30 O          68.7813   92.6810   10.1507 O.3     1  UNL1       -0.3533
@<TRIPOS>UNITY_ATOM_ATTR
22 1
charge -1
@<TRIPOS>BOND
     1    29    30    1
     2    25    30    1
     3    25    26    1
     4    26    27    1
     5    27    24    1
     6    24     1    1
     7     1     2   ar
     8     2     3   ar
     9     3     4    1
    10     3     5   ar
    11     5     6    1
    12     5     7   ar
    13     7     9    1
    14     9    10   ar
    15    10    11   ar
    16    11    12   ar
    17    12    13   ar
    18    13    14   ar
    19    13    15    1
    20    15    16    1
    21    16    17    1
    22    17    19    1
    23    19    20    1
    24    20    21    1
    25    21    22   ar
    26    21    23   ar
    27    17    18    1
    28     7     8   ar
    29    27    28    1
    30    28    25    1
    31     8     1   ar
    32    14     9   ar
    33    18    12    1
@<TRIPOS>MOLECULE
*****
 30 33 0 0 0
SMALL
GASTEIGER

@<TRIPOS>ATOM
      1 C          63.8575   91.2103   12.2849 C.ar    1  UNL1        0.2271
      2 C          64.1996   91.6396   13.6808 C.ar    1  UNL1        0.0896
      3 C          64.2602   90.6249   14.7840 C.ar    1  UNL1        0.1735
      4 F          64.6022   91.0542   16.1799 F       1  UNL1       -0.2016
      5 C          63.9787   89.1810   14.4911 C.ar    1  UNL1        0.1851
      6 F          64.0393   88.1663   15.5942 F       1  UNL1       -0.2002
      7 C          63.6367   88.7517   13.0951 C.ar    1  UNL1        0.1140
      8 N          63.5761   89.7663   11.9920 N.ar    1  UNL1       -0.2093
      9 C          63.3552   87.3077   12.8023 C.ar    1  UNL1        0.0199
     10 C          62.4600   86.9351   11.6578 C.ar    1  UNL1        0.0047
     11 C          62.1786   85.4912   11.3651 C.ar    1  UNL1        0.0366
     12 C          62.7924   84.4198   12.2167 C.ar    1  UNL1        0.1343
     13 C          63.6876   84.7923   13.3611 C.ar    1  UNL1        0.0119
     14 C          63.9690   86.2362   13.6539 C.ar    1  UNL1        0.0003
     15 C          64.3014   83.7209   14.2128 C.3     1  UNL1        0.0331
     16 C          64.0200   82.2769   13.9200 C.3     1  UNL1        0.0483
     17 C          63.1248   81.9043   12.7755 C.3     1  UNL1        0.1666
     18 O          62.5110   82.9757   11.9239 O.3     1  UNL1       -0.4795
     19 C          62.8434   80.4604   12.4827 C.3     1  UNL1        0.0494
     20 C          61.9797   79.6609   13.4129 C.3     1  UNL1        0.0454
     21 C          60.8078   80.3075   14.0900 C.2     1  UNL1        0.0505
     22 O          59.5140   79.5607   14.2253 O.co2   1  UNL1       -0.5492
     23 O          60.9296   81.7009   14.6317 O.co2   1  UNL1       -0.5492
     24 O          63.7970   92.2249   11.1818 O.3     1  UNL1       -0.4638
     25 C          66.7986   93.9787   10.1679 C.3     1  UNL1        0.1225
     26 C          66.4175   92.5376   10.3350 C.3     1  UNL1        0.0733
     27 C          65.0403   92.9514   10.7618 C.3     1  UNL1        0.1724
     28 C          65.4215   94.3925   10.5947 C.3     1  UNL1        0.0733
     29 C          68.0140   95.6103    8.5522 C.3     1  UNL1        0.1740
     30 O          68.0420   94.7052    9.7479 O.3     1  UNL1       -0.3533
@<TRIPOS>UNITY_ATOM_ATTR
22 1
charge -1
@<TRIPOS>BOND
     1    29    30    1
     2    25    30    1
     3    25    26    1
     4    26    27    1
     5    27    24    1
     6    24     1    1
     7     1     2   ar
     8     2     3   ar
     9     3     4    1
    10     3     5   ar
    11     5     6    1
    12     5     7   ar
    13     7     9    1
    14     9    10   ar
    15    10    11   ar
    16    11    12   ar
    17    12    13   ar
    18    13    14   ar
    19    13    15    1
    20    15    16    1
    21    16    17    1
    22    17    19    1
    23    19    20    1
    24    20    21    1
    25    21    22   ar
    26    21    23   ar
    27    17    18    1
    28     7     8   ar
    29    27    28    1
    30    28    25    1
    31     8     1   ar
    32    14     9   ar
    33    18    12    1
@<TRIPOS>MOLECULE
*****
 30 33 0 0 0
SMALL
GASTEIGER

@<TRIPOS>ATOM
      1 C          60.1126   88.9129    8.1854 C.ar    1  UNL1        0.2271
      2 C          60.5547   90.2211    8.7712 C.ar    1  UNL1        0.0896
      3 C          61.5466   90.2420    9.8964 C.ar    1  UNL1        0.1735
      4 F          61.9887   91.5501   10.4822 F       1  UNL1       -0.2016
      5 C          62.0962   88.9547   10.4357 C.ar    1  UNL1        0.1851
      6 F          63.0881   88.9756   11.5608 F       1  UNL1       -0.2002
      7 C          61.6541   87.6465    9.8498 C.ar    1  UNL1        0.1140
      8 N          60.6623   87.6256    8.7248 N.ar    1  UNL1       -0.2093
      9 C          62.2038   86.3593   10.3892 C.ar    1  UNL1        0.0199
     10 C          62.7776   85.3379    9.4525 C.ar    1  UNL1        0.0047
     11 C          63.3273   84.0507    9.9918 C.ar    1  UNL1        0.0366
     12 C          63.3031   83.7849   11.4679 C.ar    1  UNL1        0.1343
     13 C          62.7293   84.8062   12.4046 C.ar    1  UNL1        0.0119
     14 C          62.1796   86.0934   11.8652 C.ar    1  UNL1        0.0003
     15 C          62.7051   84.5404   13.8806 C.3     1  UNL1        0.0331
     16 C          63.2548   83.2532   14.4200 C.3     1  UNL1        0.0483
     17 C          63.8286   82.2317   13.4833 C.3     1  UNL1        0.1666
     18 O          63.8528   82.4976   12.0072 O.3     1  UNL1       -0.4795
     19 C          64.3783   80.9445   14.0226 C.3     1  UNL1        0.0494
     20 C          63.5223   79.7128   14.0413 C.3     1  UNL1        0.0454
     21 C          62.3054   79.6319   13.1681 C.2     1  UNL1        0.0505
     22 O          60.9505   79.9262   13.7406 O.co2   1  UNL1       -0.5492
     23 O          62.4433   79.2567   11.7224 O.co2   1  UNL1       -0.5492
     24 O          59.1208   88.8920    7.0604 O.3     1  UNL1       -0.4638
     25 C          59.0401   91.6083    4.6669 C.3     1  UNL1        0.1225
     26 C          60.1112   90.7209    5.2283 C.3     1  UNL1        0.0733
     27 C          59.0874   90.0171    6.0689 C.3     1  UNL1        0.1724
     28 C          58.0163   90.9046    5.5074 C.3     1  UNL1        0.0733
     29 C          60.1871   92.9831    2.7843 C.3     1  UNL1        0.1740
     30 O          59.0067   92.7335    3.6755 O.3     1  UNL1       -0.3533
@<TRIPOS>UNITY_ATOM_ATTR
22 1
charge -1
@<TRIPOS>BOND
     1    29    30    1
     2    25    30    1
     3    25    26    1
     4    26    27    1
     5    27    24    1
     6    24     1    1
     7     1     2   ar
     8     2     3   ar
     9     3     4    1
    10     3     5   ar
    11     5     6    1
    12     5     7   ar
    13     7     9    1
    14     9    10   ar
    15    10    11   ar
    16    11    12   ar
    17    12    13   ar
    18    13    14   ar
    19    13    15    1
    20    15    16    1
    21    16    17    1
    22    17    19    1
    23    19    20    1
    24    20    21    1
    25    21    22   ar
    26    21    23   ar
    27    17    18    1
    28     7     8   ar
    29    27    28    1
    30    28    25    1
    31     8     1   ar
    32    14     9   ar
    33    18    12    1
