@<TRIPOS>MOLECULE
*****
 33 37 0 0 0
SMALL
GASTEIGER

@<TRIPOS>ATOM
      1 C          64.2607   91.0049   13.2660 C.3     1  UNL1        0.0790
      2 C          63.7513   89.6138   13.5011 C.3     1  UNL1        0.0216
      3 C          62.7557   89.0098   12.5555 C.3     1  UNL1        0.0219
      4 C          62.2695   89.7971   11.3748 C.3     1  UNL1        0.0815
      5 C          62.7789   91.1881   11.1398 C.3     1  UNL1        0.0219
      6 C          63.7745   91.7920   12.0853 C.3     1  UNL1        0.0216
      7 N          61.2739   89.1932   10.4292 N.am    1  UNL1       -0.2423
      8 C          59.8700   89.6707   10.2038 C.2     1  UNL1        0.3310
      9 O          59.2151   90.8361   10.8843 O.2     1  UNL1       -0.2501
     10 N          59.2359   88.7783    9.1783 N.am    1  UNL1       -0.1620
     11 C          60.2479   87.7492    8.7700 C.2     1  UNL1        0.1035
     12 C          60.1853   86.6118    7.7941 C.3     1  UNL1        0.2314
     13 F          58.9257   86.3555    7.0210 F       1  UNL1       -0.2253
     14 C          61.3822   85.7308    7.5914 C.2     1  UNL1        0.0840
     15 C          62.6418   85.9872    8.3645 C.2     1  UNL1        0.0103
     16 C          62.7044   87.1246    9.3404 C.2     1  UNL1        0.0165
     17 C          61.5075   88.0056    9.5431 C.2     1  UNL1        0.0695
     18 C          61.3196   84.5934    6.6155 C.1     1  UNL1        0.0991
     19 N          61.2569   83.4560    5.6396 N.1     1  UNL1       -0.1911
     20 C          68.1127   93.3077   16.1471 C.3     1  UNL1        0.0458
     21 C          67.2110   92.7517   15.0851 C.3     1  UNL1        0.1581
     22 C          68.2449   93.2952   14.1442 C.3     1  UNL1        0.0458
     23 O          66.3655   92.3245   16.2482 O.3     1  UNL1       -0.4398
     24 C          65.1574   91.6181   15.7083 C.2     1  UNL1        0.4049
     25 O          64.0457   91.0251   16.5222 O.2     1  UNL1       -0.2262
     26 N          65.2563   91.6088   14.2116 N.am    1  UNL1       -0.2421
     27 C          66.5254   92.3094   13.8264 C.3     1  UNL1        0.1375
     28 C          67.0219   92.5292   12.4281 C.ar    1  UNL1       -0.0008
     29 C          68.0373   91.5965   11.8375 C.ar    1  UNL1       -0.0026
     30 C          68.5338   91.8163   10.4392 C.ar    1  UNL1       -0.0003
     31 C          68.0147   92.9687    9.6315 C.ar    1  UNL1       -0.0000
     32 C          66.9992   93.9013   10.2221 C.ar    1  UNL1       -0.0003
     33 C          66.5028   93.6816   11.6204 C.ar    1  UNL1       -0.0026
@<TRIPOS>BOND
     1    20    21    1
     2    21    22    1
     3    21    23    1
     4    23    24    1
     5    24    25    2
     6    24    26   am
     7     1    26    1
     8     1     2    1
     9     2     3    1
    10     3     4    1
    11     4     7    1
    12     7     8   am
    13     8     9    2
    14     8    10    1
    15    10    11    2
    16    11    12    1
    17    12    13    1
    18    12    14    1
    19    14    18    1
    20    18    19    3
    21    14    15    2
    22    15    16    1
    23    16    17    2
    24     4     5    1
    25     5     6    1
    26    26    27    1
    27    27    28    1
    28    28    29   ar
    29    29    30   ar
    30    30    31   ar
    31    31    32   ar
    32    32    33   ar
    33    27    21    1
    34    33    28   ar
    35     6     1    1
    36    17     7    1
    37    17    11    1
@<TRIPOS>MOLECULE
*****
 33 37 0 0 0
SMALL
GASTEIGER

@<TRIPOS>ATOM
      1 C          63.3441   86.2058   13.9439 C.3     1  UNL1        0.0790
      2 C          62.9523   86.9025   12.6746 C.3     1  UNL1        0.0216
      3 C          63.3569   88.3287   12.4462 C.3     1  UNL1        0.0219
      4 C          64.1532   89.0584   13.4873 C.3     1  UNL1        0.0815
      5 C          64.5448   88.3617   14.7565 C.3     1  UNL1        0.0219
      6 C          64.1403   86.9354   14.9849 C.3     1  UNL1        0.0216
      7 N          64.5577   90.4846   13.2589 N.am    1  UNL1       -0.2423
      8 C          63.9655   91.4174   12.2444 C.2     1  UNL1        0.3310
      9 O          62.8648   91.0877   11.2801 O.2     1  UNL1       -0.2501
     10 N          64.6673   92.7378   12.3635 N.am    1  UNL1       -0.1620
     11 C          65.6931   92.6210   13.4516 C.2     1  UNL1        0.1035
     12 C          66.6802   93.6028   14.0100 C.3     1  UNL1        0.2314
     13 F          66.7479   94.9953   13.4566 F       1  UNL1       -0.2253
     14 C          67.5995   93.1920   15.1217 C.2     1  UNL1        0.0840
     15 C          67.5318   91.7995   15.6751 C.2     1  UNL1        0.0103
     16 C          66.5447   90.8177   15.1168 C.2     1  UNL1        0.0165
     17 C          65.6254   91.2285   14.0050 C.2     1  UNL1        0.0695
     18 C          68.5866   94.1738   15.6802 C.1     1  UNL1        0.0991
     19 N          69.5737   95.1555   16.2386 N.1     1  UNL1       -0.1911
     20 C          61.9543   81.0619   14.1683 C.3     1  UNL1        0.0458
     21 C          62.3670   82.4527   13.7872 C.3     1  UNL1        0.1581
     22 C          62.3806   81.8977   12.3937 C.3     1  UNL1        0.0458
     23 O          62.2671   82.7169   15.2603 O.3     1  UNL1       -0.4398
     24 C          62.6209   84.1550   15.4983 C.2     1  UNL1        0.4049
     25 O          62.6509   84.8471   16.8288 O.2     1  UNL1       -0.2262
     26 N          62.9395   84.7795   14.1723 N.am    1  UNL1       -0.2421
     27 C          62.7826   83.7275   13.1147 C.3     1  UNL1        0.1375
     28 C          63.0027   83.9169   11.6431 C.ar    1  UNL1       -0.0008
     29 C          62.1022   84.8267   10.8611 C.ar    1  UNL1       -0.0026
     30 C          62.3223   85.0161    9.3894 C.ar    1  UNL1       -0.0003
     31 C          63.4427   84.2958    8.6998 C.ar    1  UNL1       -0.0000
     32 C          64.3431   83.3860    9.4818 C.ar    1  UNL1       -0.0003
     33 C          64.1231   83.1966   10.9534 C.ar    1  UNL1       -0.0026
@<TRIPOS>BOND
     1    20    21    1
     2    21    22    1
     3    21    23    1
     4    23    24    1
     5    24    25    2
     6    24    26   am
     7     1    26    1
     8     1     2    1
     9     2     3    1
    10     3     4    1
    11     4     7    1
    12     7     8   am
    13     8     9    2
    14     8    10    1
    15    10    11    2
    16    11    12    1
    17    12    13    1
    18    12    14    1
    19    14    18    1
    20    18    19    3
    21    14    15    2
    22    15    16    1
    23    16    17    2
    24     4     5    1
    25     5     6    1
    26    26    27    1
    27    27    28    1
    28    28    29   ar
    29    29    30   ar
    30    30    31   ar
    31    31    32   ar
    32    32    33   ar
    33    27    21    1
    34    33    28   ar
    35     6     1    1
    36    17     7    1
    37    17    11    1
@<TRIPOS>MOLECULE
*****
 33 37 0 0 0
SMALL
GASTEIGER

@<TRIPOS>ATOM
      1 C          64.3282   90.3156   12.5713 C.3     1  UNL1        0.0790
      2 C          64.8584   89.9444   13.9245 C.3     1  UNL1        0.0216
      3 C          64.5315   88.6056   14.5167 C.3     1  UNL1        0.0219
      4 C          63.6743   87.6380   13.7557 C.3     1  UNL1        0.0815
      5 C          63.1441   88.0092   12.4026 C.3     1  UNL1        0.0219
      6 C          63.4711   89.3480   11.8104 C.3     1  UNL1        0.0216
      7 N          63.3473   86.2991   14.3479 N.am    1  UNL1       -0.2423
      8 C          63.0620   86.0207   15.7939 C.2     1  UNL1        0.3310
      9 O          63.0534   87.0320   16.9016 O.2     1  UNL1       -0.2501
     10 N          62.7866   84.5532   15.9377 N.am    1  UNL1       -0.1620
     11 C          62.9018   83.9247   14.5806 C.2     1  UNL1        0.1035
     12 C          62.7360   82.5093   14.1126 C.3     1  UNL1        0.2314
     13 F          62.3894   81.4302   15.0952 F       1  UNL1       -0.2253
     14 C          62.9166   82.1730   12.6620 C.2     1  UNL1        0.0840
     15 C          63.2632   83.2521   11.6794 C.2     1  UNL1        0.0103
     16 C          63.4290   84.6675   12.1474 C.2     1  UNL1        0.0165
     17 C          63.2484   85.0038   13.5980 C.2     1  UNL1        0.0695
     18 C          62.7507   80.7575   12.1939 C.1     1  UNL1        0.0991
     19 N          62.5849   79.3421   11.7259 N.1     1  UNL1       -0.1911
     20 C          65.8607   95.1509   10.9242 C.3     1  UNL1        0.0458
     21 C          65.6353   93.8472   11.6310 C.3     1  UNL1        0.1581
     22 C          66.6367   94.3851   12.6097 C.3     1  UNL1        0.0458
     23 O          64.6810   93.5820   10.5045 O.3     1  UNL1       -0.4398
     24 C          64.0752   92.2267   10.7196 C.2     1  UNL1        0.4049
     25 O          63.0666   91.5607    9.8313 O.2     1  UNL1       -0.2262
     26 N          64.6551   91.6544   11.9791 N.am    1  UNL1       -0.2421
     27 C          65.6193   92.6560   12.5423 C.3     1  UNL1        0.1375
     28 C          66.4259   92.4945   13.7967 C.ar    1  UNL1       -0.0008
     29 C          67.8301   91.9724   13.7234 C.ar    1  UNL1       -0.0026
     30 C          68.6367   91.8110   14.9778 C.ar    1  UNL1       -0.0003
     31 C          68.0390   92.1717   16.3054 C.ar    1  UNL1       -0.0000
     32 C          66.6348   92.6939   16.3786 C.ar    1  UNL1       -0.0003
     33 C          65.8282   92.8553   15.1243 C.ar    1  UNL1       -0.0026
@<TRIPOS>BOND
     1    20    21    1
     2    21    22    1
     3    21    23    1
     4    23    24    1
     5    24    25    2
     6    24    26   am
     7     1    26    1
     8     1     2    1
     9     2     3    1
    10     3     4    1
    11     4     7    1
    12     7     8   am
    13     8     9    2
    14     8    10    1
    15    10    11    2
    16    11    12    1
    17    12    13    1
    18    12    14    1
    19    14    18    1
    20    18    19    3
    21    14    15    2
    22    15    16    1
    23    16    17    2
    24     4     5    1
    25     5     6    1
    26    26    27    1
    27    27    28    1
    28    28    29   ar
    29    29    30   ar
    30    30    31   ar
    31    31    32   ar
    32    32    33   ar
    33    27    21    1
    34    33    28   ar
    35     6     1    1
    36    17     7    1
    37    17    11    1
@<TRIPOS>MOLECULE
*****
 33 37 0 0 0
SMALL
GASTEIGER

@<TRIPOS>ATOM
      1 C          63.7278   86.6952   13.7300 C.3     1  UNL1        0.0790
      2 C          64.6033   87.2204   14.8289 C.3     1  UNL1        0.0216
      3 C          65.0039   88.6659   14.8427 C.3     1  UNL1        0.0219
      4 C          64.5290   89.5862   13.7575 C.3     1  UNL1        0.0815
      5 C          63.6536   89.0609   12.6586 C.3     1  UNL1        0.0219
      6 C          63.2530   87.6155   12.6448 C.3     1  UNL1        0.0216
      7 N          64.9296   91.0316   13.7713 N.am    1  UNL1       -0.2423
      8 C          64.9942   91.9171   14.9802 C.2     1  UNL1        0.3310
      9 O          64.6695   91.5127   16.3877 O.2     1  UNL1       -0.2501
     10 N          65.4405   93.2781   14.5346 N.am    1  UNL1       -0.1620
     11 C          65.6517   93.2337   13.0502 C.2     1  UNL1        0.1035
     12 C          66.0908   94.2781   12.0672 C.3     1  UNL1        0.2314
     13 F          66.4065   95.6666   12.5390 F       1  UNL1       -0.2253
     14 C          66.2141   93.9341   10.6124 C.2     1  UNL1        0.0840
     15 C          65.8984   92.5457   10.1407 C.2     1  UNL1        0.0103
     16 C          65.4593   91.5013   11.1236 C.2     1  UNL1        0.0165
     17 C          65.3360   91.8453   12.5784 C.2     1  UNL1        0.0695
     18 C          66.6532   94.9786    9.6293 C.1     1  UNL1        0.0991
     19 N          67.0922   96.0230    8.6463 N.1     1  UNL1       -0.1911
     20 C          62.1596   81.6357   13.1102 C.3     1  UNL1        0.0458
     21 C          62.5176   83.0859   12.9729 C.3     1  UNL1        0.1581
     22 C          62.0565   82.9035   11.5572 C.3     1  UNL1        0.0458
     23 O          62.9039   82.9651   14.4172 O.3     1  UNL1       -0.4398
     24 C          63.4042   84.3024   14.8767 C.2     1  UNL1        0.4049
     25 O          63.8954   84.6342   16.2546 O.2     1  UNL1       -0.2262
     26 N          63.3272   85.2498   13.7162 N.am    1  UNL1       -0.2421
     27 C          62.7792   84.4979   12.5396 C.3     1  UNL1        0.1375
     28 C          62.5357   85.0595   11.1702 C.ar    1  UNL1       -0.0008
     29 C          61.4007   86.0131   10.9416 C.ar    1  UNL1       -0.0026
     30 C          61.1571   86.5746    9.5721 C.ar    1  UNL1       -0.0003
     31 C          62.0486   86.1826    8.4313 C.ar    1  UNL1       -0.0000
     32 C          63.1836   85.2290    8.6599 C.ar    1  UNL1       -0.0003
     33 C          63.4271   84.6674   10.0293 C.ar    1  UNL1       -0.0026
@<TRIPOS>BOND
     1    20    21    1
     2    21    22    1
     3    21    23    1
     4    23    24    1
     5    24    25    2
     6    24    26   am
     7     1    26    1
     8     1     2    1
     9     2     3    1
    10     3     4    1
    11     4     7    1
    12     7     8   am
    13     8     9    2
    14     8    10    1
    15    10    11    2
    16    11    12    1
    17    12    13    1
    18    12    14    1
    19    14    18    1
    20    18    19    3
    21    14    15    2
    22    15    16    1
    23    16    17    2
    24     4     5    1
    25     5     6    1
    26    26    27    1
    27    27    28    1
    28    28    29   ar
    29    29    30   ar
    30    30    31   ar
    31    31    32   ar
    32    32    33   ar
    33    27    21    1
    34    33    28   ar
    35     6     1    1
    36    17     7    1
    37    17    11    1
@<TRIPOS>MOLECULE
*****
 33 37 0 0 0
SMALL
GASTEIGER

@<TRIPOS>ATOM
      1 C          59.8004   93.9129   -0.5501 C.3     1  UNL1        0.0790
      2 C          59.0878   95.2241   -0.3978 C.3     1  UNL1        0.0216
      3 C          58.0225   95.6170   -1.3780 C.3     1  UNL1        0.0219
      4 C          57.6696   94.6987   -2.5104 C.3     1  UNL1        0.0815
      5 C          58.3822   93.3876   -2.6626 C.3     1  UNL1        0.0219
      6 C          59.4475   92.9947   -1.6825 C.3     1  UNL1        0.0216
      7 N          56.6043   95.0916   -3.4906 N.am    1  UNL1       -0.2423
      8 C          56.7807   95.2382   -4.9729 C.2     1  UNL1        0.3310
      9 O          58.0535   95.0176   -5.7354 O.2     1  UNL1       -0.2501
     10 N          55.4609   95.6441   -5.5588 N.am    1  UNL1       -0.1620
     11 C          54.4688   95.7483   -4.4387 C.2     1  UNL1        0.1035
     12 C          53.0133   96.1101   -4.4175 C.3     1  UNL1        0.2314
     13 F          52.3066   96.4516   -5.6958 F       1  UNL1       -0.2253
     14 C          52.2644   96.1304   -3.1180 C.2     1  UNL1        0.0840
     15 C          52.9710   95.7889   -1.8397 C.2     1  UNL1        0.0103
     16 C          54.4266   95.4272   -1.8609 C.2     1  UNL1        0.0165
     17 C          55.1755   95.4069   -3.1603 C.2     1  UNL1        0.0695
     18 C          50.8088   96.4922   -3.0968 C.1     1  UNL1        0.0991
     19 N          49.3532   96.8540   -3.0755 N.1     1  UNL1       -0.1911
     20 C          63.9820   92.6664    2.5162 C.3     1  UNL1        0.0458
     21 C          63.0328   93.0946    1.4365 C.3     1  UNL1        0.1581
     22 C          64.2868   93.3636    0.6587 C.3     1  UNL1        0.0458
     23 O          61.9773   92.7361    2.4402 O.3     1  UNL1       -0.4398
     24 C          60.6379   92.9990    1.8181 C.2     1  UNL1        0.4049
     25 O          59.3048   92.7795    2.4697 O.2     1  UNL1       -0.2262
     26 N          60.8657   93.5200    0.4301 N.am    1  UNL1       -0.2421
     27 C          62.3459   93.5791    0.1942 C.3     1  UNL1        0.1375
     28 C          63.0206   94.0415   -1.0632 C.ar    1  UNL1       -0.0008
     29 C          63.5097   95.4550   -1.1756 C.ar    1  UNL1       -0.0026
     30 C          64.1844   95.9174   -2.4330 C.ar    1  UNL1       -0.0003
     31 C          64.3700   94.9662   -3.5779 C.ar    1  UNL1       -0.0000
     32 C          63.8809   93.5527   -3.4654 C.ar    1  UNL1       -0.0003
     33 C          63.2062   93.0903   -2.2081 C.ar    1  UNL1       -0.0026
@<TRIPOS>BOND
     1    20    21    1
     2    21    22    1
     3    21    23    1
     4    23    24    1
     5    24    25    2
     6    24    26   am
     7     1    26    1
     8     1     2    1
     9     2     3    1
    10     3     4    1
    11     4     7    1
    12     7     8   am
    13     8     9    2
    14     8    10    1
    15    10    11    2
    16    11    12    1
    17    12    13    1
    18    12    14    1
    19    14    18    1
    20    18    19    3
    21    14    15    2
    22    15    16    1
    23    16    17    2
    24     4     5    1
    25     5     6    1
    26    26    27    1
    27    27    28    1
    28    28    29   ar
    29    29    30   ar
    30    30    31   ar
    31    31    32   ar
    32    32    33   ar
    33    27    21    1
    34    33    28   ar
    35     6     1    1
    36    17     7    1
    37    17    11    1
@<TRIPOS>MOLECULE
*****
 33 37 0 0 0
SMALL
GASTEIGER

@<TRIPOS>ATOM
      1 C          61.8202   88.2201   10.6624 C.3     1  UNL1        0.0790
      2 C          62.8492   87.5257   11.5045 C.3     1  UNL1        0.0216
      3 C          63.3926   88.1977   12.7306 C.3     1  UNL1        0.0219
      4 C          62.9069   89.5640   13.1146 C.3     1  UNL1        0.0815
      5 C          61.8779   90.2582   12.2725 C.3     1  UNL1        0.0219
      6 C          61.3346   89.5863   11.0465 C.3     1  UNL1        0.0216
      7 N          63.4503   90.2359   14.3407 N.am    1  UNL1       -0.2423
      8 C          62.8595   90.1691   15.7178 C.2     1  UNL1        0.3310
      9 O          61.6216   89.4186   16.1107 O.2     1  UNL1       -0.2501
     10 N          63.7239   90.9845   16.6331 N.am    1  UNL1       -0.1620
     11 C          64.8490   91.5553   15.8216 C.2     1  UNL1        0.1035
     12 C          66.0056   92.4366   16.1898 C.3     1  UNL1        0.2314
     13 F          66.1747   92.8993   17.6066 F       1  UNL1       -0.2253
     14 C          66.9930   92.8552   15.1412 C.2     1  UNL1        0.0840
     15 C          66.8239   92.3926   13.7244 C.2     1  UNL1        0.0103
     16 C          65.6673   91.5113   13.3562 C.2     1  UNL1        0.0165
     17 C          64.6799   91.0927   14.4048 C.2     1  UNL1        0.0695
     18 C          68.1497   93.7366   15.5093 C.1     1  UNL1        0.0991
     19 N          69.3063   94.6178   15.8775 N.1     1  UNL1       -0.1911
     20 C          60.1830   85.3461    6.4789 C.3     1  UNL1        0.0458
     21 C          60.7981   85.8822    7.7375 C.3     1  UNL1        0.1581
     22 C          61.3846   84.5062    7.8501 C.3     1  UNL1        0.0458
     23 O          60.0831   87.1462    7.3617 O.3     1  UNL1       -0.4398
     24 C          60.3789   88.1758    8.4117 C.2     1  UNL1        0.4049
     25 O          59.8668   89.5855    8.4332 O.2     1  UNL1       -0.2262
     26 N          61.2768   87.5481    9.4363 N.am    1  UNL1       -0.2421
     27 C          61.5359   86.1306    9.0197 C.3     1  UNL1        0.1375
     28 C          62.3839   85.1362    9.7559 C.ar    1  UNL1       -0.0008
     29 C          63.5676   84.5125    9.0781 C.ar    1  UNL1       -0.0026
     30 C          64.4156   83.5180    9.8143 C.ar    1  UNL1       -0.0003
     31 C          64.0798   83.1473   11.2284 C.ar    1  UNL1       -0.0000
     32 C          62.8960   83.7710   11.9063 C.ar    1  UNL1       -0.0003
     33 C          62.0480   84.7655   11.1700 C.ar    1  UNL1       -0.0026
@<TRIPOS>BOND
     1    20    21    1
     2    21    22    1
     3    21    23    1
     4    23    24    1
     5    24    25    2
     6    24    26   am
     7     1    26    1
     8     1     2    1
     9     2     3    1
    10     3     4    1
    11     4     7    1
    12     7     8   am
    13     8     9    2
    14     8    10    1
    15    10    11    2
    16    11    12    1
    17    12    13    1
    18    12    14    1
    19    14    18    1
    20    18    19    3
    21    14    15    2
    22    15    16    1
    23    16    17    2
    24     4     5    1
    25     5     6    1
    26    26    27    1
    27    27    28    1
    28    28    29   ar
    29    29    30   ar
    30    30    31   ar
    31    31    32   ar
    32    32    33   ar
    33    27    21    1
    34    33    28   ar
    35     6     1    1
    36    17     7    1
    37    17    11    1
