@<TRIPOS>MOLECULE
*****
 31 35 0 0 0
SMALL
GASTEIGER

@<TRIPOS>ATOM
      1 C          63.4961   84.8552   13.2357 C.ar    1  UNL1        0.1389
      2 C          63.5456   86.3511   13.1367 C.ar    1  UNL1        0.0397
      3 C          62.8860   87.0487   11.9842 C.ar    1  UNL1        0.0350
      4 C          62.1770   86.2505   10.9306 C.ar    1  UNL1        0.0778
      5 C          62.1275   84.7546   11.0296 C.ar    1  UNL1        0.0219
      6 C          62.7871   84.0570   12.1821 C.ar    1  UNL1        0.0394
      7 N          61.5174   86.9481    9.7781 N.2     1  UNL1       -0.2641
      8 C          61.5669   88.4440    9.6792 C.3     1  UNL1        0.1696
      9 C          62.2759   89.2423   10.7328 C.2     1  UNL1        0.0908
     10 N          62.4886   90.7176   10.9008 N.am    1  UNL1       -0.1630
     11 C          63.2796   90.9317   12.1571 C.2     1  UNL1        0.3313
     12 O          63.7175   92.2563   12.7083 O.2     1  UNL1       -0.2501
     13 N          63.5558   89.5889   12.7656 N.am    1  UNL1       -0.2383
     14 C          62.9355   88.5447   11.8853 C.2     1  UNL1        0.0703
     15 C          62.7376   82.5610   12.2810 C.ar    1  UNL1        0.0526
     16 C          62.1094   81.7711   13.3907 C.ar    1  UNL1        0.1007
     17 C          61.4205   82.3383   14.5963 C.3     1  UNL1        0.0557
     18 N          62.2912   80.3142   13.0831 N.ar    1  UNL1       -0.0817
     19 O          63.0317   80.2038   11.7833 O.2     1  UNL1       -0.3581
     20 C          63.3076   81.5924   11.2876 C.ar    1  UNL1        0.1545
     21 C          64.0271   81.9496   10.0209 C.3     1  UNL1        0.0754
     22 C          63.8672   84.5944   15.7938 C.3     1  UNL1        0.2525
     23 O          64.1557   84.1576   14.3882 O.3     1  UNL1       -0.4714
     24 C          64.3184   89.3347   14.0320 C.3     1  UNL1        0.1038
     25 C          64.4078   87.9442   14.5874 C.3     1  UNL1        0.0268
     26 C          64.9916   90.4710   14.7431 C.ar    1  UNL1       -0.0039
     27 C          64.2917   91.1700   15.8707 C.ar    1  UNL1       -0.0027
     28 C          64.9650   92.3064   16.5817 C.ar    1  UNL1       -0.0003
     29 C          66.3380   92.7437   16.1651 C.ar    1  UNL1       -0.0000
     30 C          67.0378   92.0446   15.0375 C.ar    1  UNL1       -0.0003
     31 C          66.3646   90.9083   14.3265 C.ar    1  UNL1       -0.0027
@<TRIPOS>BOND
     1    22    23    1
     2    23     1    1
     3     1     2   ar
     4     2     3   ar
     5     3     4   ar
     6     4     5   ar
     7     5     6   ar
     8     6    15    1
     9    15    16   ar
    10    16    17    1
    11    16    18   ar
    12    18    19   ar
    13    19    20   ar
    14    20    21    1
    15     4     7    2
    16     7     8    1
    17     8     9    1
    18     9    10    2
    19    10    11    1
    20    11    12    2
    21    11    13   am
    22    13    24    1
    23    24    25    1
    24    24    26    1
    25    26    27   ar
    26    27    28   ar
    27    28    29   ar
    28    29    30   ar
    29    30    31   ar
    30    13    14    1
    31     6     1   ar
    32    20    15   ar
    33    14     9    1
    34    14     3    2
    35    31    26   ar
@<TRIPOS>MOLECULE
*****
 31 35 0 0 0
SMALL
GASTEIGER

@<TRIPOS>ATOM
      1 C          59.1961   95.3533   -2.5925 C.ar    1  UNL1        0.1389
      2 C          60.4782   95.1306   -1.8466 C.ar    1  UNL1        0.0397
      3 C          60.4723   94.3653   -0.5566 C.ar    1  UNL1        0.0350
      4 C          59.1842   93.8227   -0.0124 C.ar    1  UNL1        0.0778
      5 C          57.9020   94.0453   -0.7582 C.ar    1  UNL1        0.0219
      6 C          57.9079   94.8106   -2.0483 C.ar    1  UNL1        0.0394
      7 N          59.1782   93.0574    1.2777 N.2     1  UNL1       -0.2641
      8 C          60.4604   92.8347    2.0236 C.3     1  UNL1        0.1696
      9 C          61.7486   93.3774    1.4794 C.2     1  UNL1        0.0908
     10 N          63.1582   93.3166    1.9888 N.am    1  UNL1       -0.1630
     11 C          64.0352   94.0444    1.0136 C.2     1  UNL1        0.3313
     12 O          65.5192   94.2291    1.1300 O.2     1  UNL1       -0.2501
     13 N          63.1678   94.5549   -0.0985 N.am    1  UNL1       -0.2383
     14 C          61.7546   94.1427    0.1893 C.2     1  UNL1        0.0703
     15 C          56.6256   95.0333   -2.7942 C.ar    1  UNL1        0.0526
     16 C          55.5263   95.9732   -2.3969 C.ar    1  UNL1        0.1007
     17 C          55.5160   96.8555   -1.1839 C.3     1  UNL1        0.0557
     18 N          54.4388   95.8758   -3.4255 N.ar    1  UNL1       -0.0817
     19 O          54.8662   94.8757   -4.4586 O.2     1  UNL1       -0.3581
     20 C          56.2177   94.3550   -4.0684 C.ar    1  UNL1        0.1545
     21 C          57.0203   93.3351   -4.8204 C.3     1  UNL1        0.0754
     22 C          59.9770   95.6012   -5.0580 C.3     1  UNL1        0.2525
     23 O          59.2020   96.1186   -3.8826 O.3     1  UNL1       -0.4714
     24 C          63.6320   95.3398   -1.2895 C.3     1  UNL1        0.1038
     25 C          63.7498   96.8328   -1.2043 C.3     1  UNL1        0.0268
     26 C          63.9785   94.6318   -2.5657 C.ar    1  UNL1       -0.0039
     27 C          64.6591   95.3767   -3.6757 C.ar    1  UNL1       -0.0027
     28 C          65.0055   94.6686   -4.9519 C.ar    1  UNL1       -0.0003
     29 C          64.6714   93.2157   -5.1181 C.ar    1  UNL1       -0.0000
     30 C          63.9909   92.4709   -4.0080 C.ar    1  UNL1       -0.0003
     31 C          63.6444   93.1790   -2.7319 C.ar    1  UNL1       -0.0027
@<TRIPOS>BOND
     1    22    23    1
     2    23     1    1
     3     1     2   ar
     4     2     3   ar
     5     3     4   ar
     6     4     5   ar
     7     5     6   ar
     8     6    15    1
     9    15    16   ar
    10    16    17    1
    11    16    18   ar
    12    18    19   ar
    13    19    20   ar
    14    20    21    1
    15     4     7    2
    16     7     8    1
    17     8     9    1
    18     9    10    2
    19    10    11    1
    20    11    12    2
    21    11    13   am
    22    13    24    1
    23    24    25    1
    24    24    26    1
    25    26    27   ar
    26    27    28   ar
    27    28    29   ar
    28    29    30   ar
    29    30    31   ar
    30    13    14    1
    31     6     1   ar
    32    20    15   ar
    33    14     9    1
    34    14     3    2
    35    31    26   ar
@<TRIPOS>MOLECULE
*****
 31 35 0 0 0
SMALL
GASTEIGER

@<TRIPOS>ATOM
      1 C          63.6675   89.6346   12.9694 C.ar    1  UNL1        0.1389
      2 C          63.2548   88.2438   12.5882 C.ar    1  UNL1        0.0397
      3 C          63.7770   87.0684   13.3600 C.ar    1  UNL1        0.0350
      4 C          64.7119   87.2837   14.5130 C.ar    1  UNL1        0.0778
      5 C          65.1246   88.6744   14.8942 C.ar    1  UNL1        0.0219
      6 C          64.6024   89.8499   14.1224 C.ar    1  UNL1        0.0394
      7 N          65.2341   86.1082   15.2848 N.2     1  UNL1       -0.2641
      8 C          64.8214   84.7175   14.9035 C.3     1  UNL1        0.1696
      9 C          63.8865   84.5021   13.7504 C.2     1  UNL1        0.0908
     10 N          63.3078   83.2570   13.1464 N.am    1  UNL1       -0.1630
     11 C          62.4280   83.6629   12.0014 C.2     1  UNL1        0.3313
     12 O          61.6500   82.7356   11.1156 O.2     1  UNL1       -0.2501
     13 N          62.4629   85.1588   11.8977 N.am    1  UNL1       -0.2383
     14 C          63.3642   85.6775   12.9787 C.2     1  UNL1        0.0703
     15 C          65.0152   91.2407   14.5038 C.ar    1  UNL1        0.0526
     16 C          65.8340   92.1781   13.6667 C.ar    1  UNL1        0.1007
     17 C          66.3839   91.8894   12.3013 C.3     1  UNL1        0.0557
     18 N          66.0065   93.4550   14.4347 N.ar    1  UNL1       -0.0817
     19 O          65.2942   93.3068   15.7465 O.2     1  UNL1       -0.3581
     20 C          64.6816   91.9382   15.7891 C.ar    1  UNL1        0.1545
     21 C          63.8766   91.3675   16.9188 C.3     1  UNL1        0.0754
     22 C          63.0072   90.7266   10.7064 C.3     1  UNL1        0.2525
     23 O          63.1453   90.8100   12.1976 O.3     1  UNL1       -0.4714
     24 C          61.7258   85.9902   10.8899 C.3     1  UNL1        0.1038
     25 C          60.9125   87.1676   11.3398 C.3     1  UNL1        0.0268
     26 C          61.8020   85.6443    9.4324 C.ar    1  UNL1       -0.0039
     27 C          60.6302   85.9132    8.5354 C.ar    1  UNL1       -0.0027
     28 C          60.7066   85.5671    7.0778 C.ar    1  UNL1       -0.0003
     29 C          61.9546   84.9523    6.5172 C.ar    1  UNL1       -0.0000
     30 C          63.1264   84.6834    7.4143 C.ar    1  UNL1       -0.0003
     31 C          63.0501   85.0294    8.8718 C.ar    1  UNL1       -0.0027
@<TRIPOS>BOND
     1    22    23    1
     2    23     1    1
     3     1     2   ar
     4     2     3   ar
     5     3     4   ar
     6     4     5   ar
     7     5     6   ar
     8     6    15    1
     9    15    16   ar
    10    16    17    1
    11    16    18   ar
    12    18    19   ar
    13    19    20   ar
    14    20    21    1
    15     4     7    2
    16     7     8    1
    17     8     9    1
    18     9    10    2
    19    10    11    1
    20    11    12    2
    21    11    13   am
    22    13    24    1
    23    24    25    1
    24    24    26    1
    25    26    27   ar
    26    27    28   ar
    27    28    29   ar
    28    29    30   ar
    29    30    31   ar
    30    13    14    1
    31     6     1   ar
    32    20    15   ar
    33    14     9    1
    34    14     3    2
    35    31    26   ar
@<TRIPOS>MOLECULE
*****
 31 35 0 0 0
SMALL
GASTEIGER

@<TRIPOS>ATOM
      1 C          58.9712   94.6319   -2.4541 C.ar    1  UNL1        0.1389
      2 C          60.2844   94.9490   -1.8025 C.ar    1  UNL1        0.0397
      3 C          61.5288   95.0515   -2.6338 C.ar    1  UNL1        0.0350
      4 C          61.4599   94.8369   -4.1168 C.ar    1  UNL1        0.0778
      5 C          60.1466   94.5198   -4.7684 C.ar    1  UNL1        0.0219
      6 C          58.9022   94.4173   -3.9371 C.ar    1  UNL1        0.0394
      7 N          62.7042   94.9394   -4.9481 N.2     1  UNL1       -0.2641
      8 C          64.0175   95.2565   -4.2965 C.3     1  UNL1        0.1696
      9 C          64.0865   95.4712   -2.8135 C.2     1  UNL1        0.0908
     10 N          65.2300   95.7948   -1.8982 N.am    1  UNL1       -0.1630
     11 C          64.6924   95.8923   -0.5013 C.2     1  UNL1        0.3313
     12 O          65.4904   96.1993    0.7311 O.2     1  UNL1       -0.2501
     13 N          63.2167   95.6290   -0.5531 N.am    1  UNL1       -0.2383
     14 C          62.8421   95.3687   -1.9821 C.2     1  UNL1        0.0703
     15 C          57.5889   94.1002   -4.5887 C.ar    1  UNL1        0.0526
     16 C          56.6992   95.0761   -5.3001 C.ar    1  UNL1        0.1007
     17 C          56.9665   96.5404   -5.4847 C.3     1  UNL1        0.0557
     18 N          55.4951   94.3305   -5.7945 N.ar    1  UNL1       -0.0817
     19 O          55.6407   92.8937   -5.3886 O.2     1  UNL1       -0.3581
     20 C          56.9347   92.7514   -4.6434 C.ar    1  UNL1        0.1545
     21 C          57.4789   91.4831   -4.0561 C.3     1  UNL1        0.0754
     22 C          57.4518   93.2831   -0.8348 C.3     1  UNL1        0.2525
     23 O          57.7268   94.5294   -1.6228 O.3     1  UNL1       -0.4714
     24 C          62.2798   95.6264    0.6183 C.3     1  UNL1        0.1038
     25 C          61.4831   96.8548    0.9443 C.3     1  UNL1        0.0268
     26 C          62.1396   94.3953    1.4638 C.ar    1  UNL1       -0.0039
     27 C          63.3437   93.5551    1.7707 C.ar    1  UNL1       -0.0027
     28 C          63.2034   92.3241    2.6163 C.ar    1  UNL1       -0.0003
     29 C          61.8592   91.9332    3.1549 C.ar    1  UNL1       -0.0000
     30 C          60.6551   92.7735    2.8479 C.ar    1  UNL1       -0.0003
     31 C          60.7953   94.0045    2.0024 C.ar    1  UNL1       -0.0027
@<TRIPOS>BOND
     1    22    23    1
     2    23     1    1
     3     1     2   ar
     4     2     3   ar
     5     3     4   ar
     6     4     5   ar
     7     5     6   ar
     8     6    15    1
     9    15    16   ar
    10    16    17    1
    11    16    18   ar
    12    18    19   ar
    13    19    20   ar
    14    20    21    1
    15     4     7    2
    16     7     8    1
    17     8     9    1
    18     9    10    2
    19    10    11    1
    20    11    12    2
    21    11    13   am
    22    13    24    1
    23    24    25    1
    24    24    26    1
    25    26    27   ar
    26    27    28   ar
    27    28    29   ar
    28    29    30   ar
    29    30    31   ar
    30    13    14    1
    31     6     1   ar
    32    20    15   ar
    33    14     9    1
    34    14     3    2
    35    31    26   ar
@<TRIPOS>MOLECULE
*****
 31 35 0 0 0
SMALL
GASTEIGER

@<TRIPOS>ATOM
      1 C          58.6357   94.0038   -2.0726 C.ar    1  UNL1        0.1389
      2 C          59.8373   94.1683   -1.1900 C.ar    1  UNL1        0.0397
      3 C          61.2098   94.2176   -1.7931 C.ar    1  UNL1        0.0350
      4 C          61.3808   94.1023   -3.2789 C.ar    1  UNL1        0.0778
      5 C          60.1792   93.9378   -4.1615 C.ar    1  UNL1        0.0219
      6 C          58.8066   93.8886   -3.5584 C.ar    1  UNL1        0.0394
      7 N          62.7533   94.1516   -3.8820 N.2     1  UNL1       -0.2641
      8 C          63.9549   94.3161   -2.9994 C.3     1  UNL1        0.1696
      9 C          63.7840   94.4313   -1.5135 C.2     1  UNL1        0.0908
     10 N          64.7740   94.6002   -0.3994 N.am    1  UNL1       -0.1630
     11 C          64.0134   94.6552    0.8922 C.2     1  UNL1        0.3313
     12 O          64.6085   94.8167    2.2596 O.2     1  UNL1       -0.2501
     13 N          62.5533   94.5205    0.5764 N.am    1  UNL1       -0.2383
     14 C          62.4115   94.3821   -0.9104 C.2     1  UNL1        0.0703
     15 C          57.6050   93.7240   -4.4411 C.ar    1  UNL1        0.0526
     16 C          56.7844   92.4773   -4.5899 C.ar    1  UNL1        0.1007
     17 C          57.0212   91.1761   -3.8823 C.3     1  UNL1        0.0557
     18 N          55.6853   92.7601   -5.5707 N.ar    1  UNL1       -0.0817
     19 O          55.8266   94.1818   -6.0281 O.2     1  UNL1       -0.3581
     20 C          57.0131   94.7775   -5.3299 C.ar    1  UNL1        0.1545
     21 C          57.5188   96.1803   -5.4921 C.3     1  UNL1        0.0754
     22 C          56.4832   95.2210   -1.2759 C.3     1  UNL1        0.2525
     23 O          57.2632   93.9545   -1.4695 O.3     1  UNL1       -0.4714
     24 C          61.4318   94.5235    1.5726 C.3     1  UNL1        0.1038
     25 C          60.4810   95.6823    1.6280 C.3     1  UNL1        0.0268
     26 C          61.2611   93.3677    2.5133 C.ar    1  UNL1       -0.0039
     27 C          59.9686   93.1871    3.2527 C.ar    1  UNL1       -0.0027
     28 C          59.7980   92.0312    4.1935 C.ar    1  UNL1       -0.0003
     29 C          60.9198   91.0560    4.3948 C.ar    1  UNL1       -0.0000
     30 C          62.2123   91.2367    3.6553 C.ar    1  UNL1       -0.0003
     31 C          62.3829   92.3925    2.7146 C.ar    1  UNL1       -0.0027
@<TRIPOS>BOND
     1    22    23    1
     2    23     1    1
     3     1     2   ar
     4     2     3   ar
     5     3     4   ar
     6     4     5   ar
     7     5     6   ar
     8     6    15    1
     9    15    16   ar
    10    16    17    1
    11    16    18   ar
    12    18    19   ar
    13    19    20   ar
    14    20    21    1
    15     4     7    2
    16     7     8    1
    17     8     9    1
    18     9    10    2
    19    10    11    1
    20    11    12    2
    21    11    13   am
    22    13    24    1
    23    24    25    1
    24    24    26    1
    25    26    27   ar
    26    27    28   ar
    27    28    29   ar
    28    29    30   ar
    29    30    31   ar
    30    13    14    1
    31     6     1   ar
    32    20    15   ar
    33    14     9    1
    34    14     3    2
    35    31    26   ar
@<TRIPOS>MOLECULE
*****
 31 35 0 0 0
SMALL
GASTEIGER

@<TRIPOS>ATOM
      1 C          63.2256   85.1857   12.6160 C.ar    1  UNL1        0.1389
      2 C          63.2822   86.4920   13.3510 C.ar    1  UNL1        0.0397
      3 C          63.1840   86.5153   14.8476 C.ar    1  UNL1        0.0350
      4 C          63.0293   85.2324   15.6092 C.ar    1  UNL1        0.0778
      5 C          62.9727   83.9261   14.8742 C.ar    1  UNL1        0.0219
      6 C          63.0709   83.9027   13.3775 C.ar    1  UNL1        0.0394
      7 N          62.9312   85.2557   17.1058 N.2     1  UNL1       -0.2641
      8 C          62.9878   86.5620   17.8408 C.3     1  UNL1        0.1696
      9 C          63.1425   87.8451   17.0793 C.2     1  UNL1        0.0908
     10 N          63.2282   89.2741   17.5272 N.am    1  UNL1       -0.1630
     11 C          63.3793   90.1338   16.3074 C.2     1  UNL1        0.3313
     12 O          63.5013   91.6288   16.2921 O.2     1  UNL1       -0.2501
     13 N          63.3870   89.2363   15.1057 N.am    1  UNL1       -0.2383
     14 C          63.2406   87.8217   15.5827 C.2     1  UNL1        0.0703
     15 C          63.0143   82.5964   12.6425 C.ar    1  UNL1        0.0526
     16 C          63.7890   82.2456   11.4069 C.ar    1  UNL1        0.1007
     17 C          64.7563   83.1396   10.6893 C.3     1  UNL1        0.0557
     18 N          63.4265   80.8439   11.0148 N.ar    1  UNL1       -0.0817
     19 O          62.4277   80.3283   12.0081 O.2     1  UNL1       -0.3581
     20 C          62.1730   81.4114   13.0141 C.ar    1  UNL1        0.1545
     21 C          61.2406   81.3247   14.1859 C.3     1  UNL1        0.0754
     22 C          62.2212   85.7458   10.2863 C.3     1  UNL1        0.2525
     23 O          63.3237   85.1624   11.1194 O.3     1  UNL1       -0.4714
     24 C          63.5180   89.6761   13.6776 C.3     1  UNL1        0.1038
     25 C          62.6024   89.1118   12.6320 C.3     1  UNL1        0.0268
     26 C          64.5647   90.6801   13.2950 C.ar    1  UNL1       -0.0039
     27 C          65.7912   90.8450   14.1427 C.ar    1  UNL1       -0.0027
     28 C          66.8378   91.8492   13.7600 C.ar    1  UNL1       -0.0003
     29 C          66.6580   92.6883   12.5298 C.ar    1  UNL1       -0.0000
     30 C          65.4314   92.5233   11.6821 C.ar    1  UNL1       -0.0003
     31 C          64.3848   91.5193   12.0648 C.ar    1  UNL1       -0.0027
@<TRIPOS>BOND
     1    22    23    1
     2    23     1    1
     3     1     2   ar
     4     2     3   ar
     5     3     4   ar
     6     4     5   ar
     7     5     6   ar
     8     6    15    1
     9    15    16   ar
    10    16    17    1
    11    16    18   ar
    12    18    19   ar
    13    19    20   ar
    14    20    21    1
    15     4     7    2
    16     7     8    1
    17     8     9    1
    18     9    10    2
    19    10    11    1
    20    11    12    2
    21    11    13   am
    22    13    24    1
    23    24    25    1
    24    24    26    1
    25    26    27   ar
    26    27    28   ar
    27    28    29   ar
    28    29    30   ar
    29    30    31   ar
    30    13    14    1
    31     6     1   ar
    32    20    15   ar
    33    14     9    1
    34    14     3    2
    35    31    26   ar
@<TRIPOS>MOLECULE
*****
 31 35 0 0 0
SMALL
GASTEIGER

@<TRIPOS>ATOM
      1 C          63.9403   89.9941   13.0088 C.ar    1  UNL1        0.1389
      2 C          63.4807   88.6945   12.4175 C.ar    1  UNL1        0.0397
      3 C          63.7175   87.4097   13.1546 C.ar    1  UNL1        0.0350
      4 C          64.4139   87.4246   14.4831 C.ar    1  UNL1        0.0778
      5 C          64.8734   88.7243   15.0744 C.ar    1  UNL1        0.0219
      6 C          64.6367   90.0090   14.3372 C.ar    1  UNL1        0.0394
      7 N          64.6507   86.1399   15.2202 N.2     1  UNL1       -0.2641
      8 C          64.1911   84.8403   14.6289 C.3     1  UNL1        0.1696
      9 C          63.4947   84.8253   13.3004 C.2     1  UNL1        0.0908
     10 N          62.9331   83.7065   12.4741 N.am    1  UNL1       -0.1630
     11 C          62.3493   84.2997   11.2263 C.2     1  UNL1        0.3313
     12 O          61.6819   83.5408   10.1179 O.2     1  UNL1       -0.2501
     13 N          62.5500   85.7852   11.2813 N.am    1  UNL1       -0.2383
     14 C          63.2579   86.1100   12.5633 C.2     1  UNL1        0.0703
     15 C          65.0963   91.3087   14.9286 C.ar    1  UNL1        0.0526
     16 C          66.1974   92.1783   14.3982 C.ar    1  UNL1        0.1007
     17 C          67.0324   91.9008   13.1833 C.3     1  UNL1        0.0557
     18 N          66.3171   93.3739   15.2959 N.ar    1  UNL1       -0.0817
     19 O          65.2898   93.2434   16.3812 O.2     1  UNL1       -0.3581
     20 C          64.5354   91.9670   16.1542 C.ar    1  UNL1        0.1545
     21 C          63.4164   91.4412   17.0036 C.3     1  UNL1        0.0754
     22 C          64.2170   91.4462   10.8723 C.3     1  UNL1        0.2525
     23 O          63.7035   91.2788   12.2716 O.3     1  UNL1       -0.4714
     24 C          62.1186   86.7725   10.2378 C.3     1  UNL1        0.1038
     25 C          62.5437   86.5896    8.8110 C.3     1  UNL1        0.0268
     26 C          61.2620   87.9427   10.6210 C.ar    1  UNL1       -0.0039
     27 C          60.1954   87.7820   11.6634 C.ar    1  UNL1       -0.0027
     28 C          59.3389   88.9523   12.0466 C.ar    1  UNL1       -0.0003
     29 C          59.5489   90.2832   11.3874 C.ar    1  UNL1       -0.0000
     30 C          60.6155   90.4439   10.3450 C.ar    1  UNL1       -0.0003
     31 C          61.4720   89.2736    9.9618 C.ar    1  UNL1       -0.0027
@<TRIPOS>BOND
     1    22    23    1
     2    23     1    1
     3     1     2   ar
     4     2     3   ar
     5     3     4   ar
     6     4     5   ar
     7     5     6   ar
     8     6    15    1
     9    15    16   ar
    10    16    17    1
    11    16    18   ar
    12    18    19   ar
    13    19    20   ar
    14    20    21    1
    15     4     7    2
    16     7     8    1
    17     8     9    1
    18     9    10    2
    19    10    11    1
    20    11    12    2
    21    11    13   am
    22    13    24    1
    23    24    25    1
    24    24    26    1
    25    26    27   ar
    26    27    28   ar
    27    28    29   ar
    28    29    30   ar
    29    30    31   ar
    30    13    14    1
    31     6     1   ar
    32    20    15   ar
    33    14     9    1
    34    14     3    2
    35    31    26   ar
@<TRIPOS>MOLECULE
*****
 31 35 0 0 0
SMALL
GASTEIGER

@<TRIPOS>ATOM
      1 C          63.7666   88.7779   12.9011 C.ar    1  UNL1        0.1389
      2 C          63.5423   87.4053   12.3394 C.ar    1  UNL1        0.0397
      3 C          63.7145   86.1994   13.2147 C.ar    1  UNL1        0.0350
      4 C          64.1110   86.3661   14.6517 C.ar    1  UNL1        0.0778
      5 C          64.3353   87.7388   15.2134 C.ar    1  UNL1        0.0219
      6 C          64.1631   88.9447   14.3381 C.ar    1  UNL1        0.0394
      7 N          64.2832   85.1602   15.5270 N.2     1  UNL1       -0.2641
      8 C          64.0589   83.7876   14.9653 C.3     1  UNL1        0.1696
      9 C          63.6624   83.6208   13.5283 C.2     1  UNL1        0.0908
     10 N          63.3747   82.4029   12.7013 N.am    1  UNL1       -0.1630
     11 C          63.0248   82.8561   11.3149 C.2     1  UNL1        0.3313
     12 O          62.6664   81.9673   10.1610 O.2     1  UNL1       -0.2501
     13 N          63.0961   84.3540   11.2850 N.am    1  UNL1       -0.2383
     14 C          63.4902   84.8267   12.6530 C.2     1  UNL1        0.0703
     15 C          64.3874   90.3174   14.8998 C.ar    1  UNL1        0.0526
     16 C          63.7802   90.8656   16.1571 C.ar    1  UNL1        0.1007
     17 C          62.8421   90.1374   17.0734 C.3     1  UNL1        0.0557
     18 N          64.2758   92.2698   16.3372 N.ar    1  UNL1       -0.0817
     19 O          65.1894   92.5895   15.1912 O.2     1  UNL1       -0.3581
     20 C          65.2583   91.3828   14.3028 C.ar    1  UNL1        0.1545
     21 C          66.0578   91.2627   13.0394 C.3     1  UNL1        0.0754
     22 C          62.3268   90.7832   12.0911 C.3     1  UNL1        0.2525
     23 O          63.5944   89.9838   12.0258 O.3     1  UNL1       -0.4714
     24 C          62.8216   85.2263   10.0960 C.3     1  UNL1        0.1038
     25 C          63.4525   84.9102    8.7723 C.3     1  UNL1        0.0268
     26 C          61.9162   86.4146   10.2306 C.ar    1  UNL1       -0.0039
     27 C          60.8987   86.4613   11.3317 C.ar    1  UNL1       -0.0027
     28 C          59.9933   87.6497   11.4663 C.ar    1  UNL1       -0.0003
     29 C          60.1054   88.7913   10.4997 C.ar    1  UNL1       -0.0000
     30 C          61.1229   88.7445    9.3986 C.ar    1  UNL1       -0.0003
     31 C          62.0283   87.5562    9.2641 C.ar    1  UNL1       -0.0027
@<TRIPOS>BOND
     1    22    23    1
     2    23     1    1
     3     1     2   ar
     4     2     3   ar
     5     3     4   ar
     6     4     5   ar
     7     5     6   ar
     8     6    15    1
     9    15    16   ar
    10    16    17    1
    11    16    18   ar
    12    18    19   ar
    13    19    20   ar
    14    20    21    1
    15     4     7    2
    16     7     8    1
    17     8     9    1
    18     9    10    2
    19    10    11    1
    20    11    12    2
    21    11    13   am
    22    13    24    1
    23    24    25    1
    24    24    26    1
    25    26    27   ar
    26    27    28   ar
    27    28    29   ar
    28    29    30   ar
    29    30    31   ar
    30    13    14    1
    31     6     1   ar
    32    20    15   ar
    33    14     9    1
    34    14     3    2
    35    31    26   ar
@<TRIPOS>MOLECULE
*****
 31 35 0 0 0
SMALL
GASTEIGER

@<TRIPOS>ATOM
      1 C          63.6278   84.7041   13.2083 C.ar    1  UNL1        0.1389
      2 C          63.6671   86.2033   13.2360 C.ar    1  UNL1        0.0397
      3 C          62.9430   86.9922   12.1856 C.ar    1  UNL1        0.0350
      4 C          62.1794   86.2818   11.1075 C.ar    1  UNL1        0.0778
      5 C          62.1401   84.7826   11.0798 C.ar    1  UNL1        0.0219
      6 C          62.8642   83.9938   12.1302 C.ar    1  UNL1        0.0394
      7 N          61.4553   87.0707   10.0572 N.2     1  UNL1       -0.2641
      8 C          61.4946   88.5699   10.0849 C.3     1  UNL1        0.1696
      9 C          62.2582   89.2803   11.1630 C.2     1  UNL1        0.0908
     10 N          62.4753   90.7373   11.4457 N.am    1  UNL1       -0.1630
     11 C          63.3336   90.8489   12.6707 C.2     1  UNL1        0.3313
     12 O          63.7972   92.1247   13.3092 O.2     1  UNL1       -0.2501
     13 N          63.6470   89.4610   13.1452 N.am    1  UNL1       -0.2383
     14 C          62.9824   88.4914   12.2134 C.2     1  UNL1        0.0703
     15 C          62.8249   82.4945   12.1024 C.ar    1  UNL1        0.0526
     16 C          62.2037   81.6094   13.1420 C.ar    1  UNL1        0.1007
     17 C          61.5129   82.0681   14.3920 C.3     1  UNL1        0.0557
     18 N          62.3947   80.1851   12.7123 N.ar    1  UNL1       -0.0817
     19 O          63.1339   80.1898   11.4070 O.2     1  UNL1       -0.3581
     20 C          63.3997   81.6171   11.0301 C.ar    1  UNL1        0.1545
     21 C          64.1149   82.0850    9.7974 C.3     1  UNL1        0.0754
     22 C          65.8073   84.1699   14.5175 C.3     1  UNL1        0.2525
     23 O          64.3520   83.9153   14.2587 O.3     1  UNL1       -0.4714
     24 C          64.4790   89.1049   14.3415 C.3     1  UNL1        0.1038
     25 C          65.9123   89.5412   14.4149 C.3     1  UNL1        0.0268
     26 C          63.8777   88.3126   15.4643 C.ar    1  UNL1       -0.0039
     27 C          64.2027   86.8558   15.6122 C.ar    1  UNL1       -0.0027
     28 C          63.6014   86.0635   16.7351 C.ar    1  UNL1       -0.0003
     29 C          62.6751   86.7281   17.7100 C.ar    1  UNL1       -0.0000
     30 C          62.3501   88.1850   17.5619 C.ar    1  UNL1       -0.0003
     31 C          62.9514   88.9772   16.4391 C.ar    1  UNL1       -0.0027
@<TRIPOS>BOND
     1    22    23    1
     2    23     1    1
     3     1     2   ar
     4     2     3   ar
     5     3     4   ar
     6     4     5   ar
     7     5     6   ar
     8     6    15    1
     9    15    16   ar
    10    16    17    1
    11    16    18   ar
    12    18    19   ar
    13    19    20   ar
    14    20    21    1
    15     4     7    2
    16     7     8    1
    17     8     9    1
    18     9    10    2
    19    10    11    1
    20    11    12    2
    21    11    13   am
    22    13    24    1
    23    24    25    1
    24    24    26    1
    25    26    27   ar
    26    27    28   ar
    27    28    29   ar
    28    29    30   ar
    29    30    31   ar
    30    13    14    1
    31     6     1   ar
    32    20    15   ar
    33    14     9    1
    34    14     3    2
    35    31    26   ar
