@<TRIPOS>MOLECULE
*****
 23 26 0 0 0
SMALL
GASTEIGER

@<TRIPOS>ATOM
      1 S          60.4367   88.9190   10.9518 S.3     1  UNL1       -0.0709
      2 C          65.7064   92.4974   11.9661 C.2     1  UNL1        0.1223
      3 C          65.6387   91.8940   13.3376 C.2     1  UNL1        0.0343
      4 C          64.5432   90.9278   13.6787 C.2     1  UNL1        0.0232
      5 C          63.5153   90.5651   12.6483 C.2     1  UNL1        0.0975
      6 N          62.3285   89.6490   12.6935 N.2     1  UNL1       -0.2200
      7 C          61.6626   89.6862   11.3499 C.2     1  UNL1        0.1901
      8 N          62.4380   90.6254   10.4742 N.2     1  UNL1       -0.2236
      9 C          63.5830   91.1686   11.2766 C.2     1  UNL1        0.0863
     10 C          64.6786   92.1347   10.9355 C.3     1  UNL1        0.1112
     11 C          66.4625   94.8464   11.1534 C.3     1  UNL1        0.2520
     12 O          66.8020   93.4635   11.6250 O.2     1  UNL1       -0.4753
     13 C          60.5004   87.9392    9.8178 C.3     1  UNL1        0.0913
     14 C          61.4193   86.7564    9.8994 C.ar    1  UNL1       -0.0109
     15 C          62.1712   86.3055    8.6823 C.ar    1  UNL1       -0.0034
     16 C          63.0901   85.1227    8.7638 C.ar    1  UNL1       -0.0003
     17 C          63.2570   84.3907   10.0625 C.ar    1  UNL1       -0.0000
     18 C          64.1758   83.2079   10.1440 C.ar    1  UNL1       -0.0000
     19 C          64.3427   82.4760   11.4426 C.ar    1  UNL1       -0.0000
     20 C          63.5907   82.9268   12.6597 C.ar    1  UNL1       -0.0000
     21 C          62.6719   84.1096   12.5781 C.ar    1  UNL1       -0.0000
     22 C          62.5050   84.8416   11.2796 C.ar    1  UNL1       -0.0003
     23 C          61.5861   86.0244   11.1980 C.ar    1  UNL1       -0.0034
@<TRIPOS>BOND
     1    11    12    1
     2    12     2    1
     3     2     3    2
     4     3     4    1
     5     4     5    2
     6     5     6    1
     7     6     7    2
     8     7     1    1
     9     1    13    1
    10    13    14    1
    11    14    15   ar
    12    15    16   ar
    13    16    17   ar
    14    17    18   ar
    15    18    19   ar
    16    19    20   ar
    17    20    21   ar
    18    21    22   ar
    19    22    23   ar
    20     7     8    1
    21     8     9    2
    22     9    10    1
    23    10     2    1
    24     9     5    1
    25    23    14   ar
    26    22    17   ar
@<TRIPOS>MOLECULE
*****
 23 26 0 0 0
SMALL
GASTEIGER

@<TRIPOS>ATOM
      1 S          64.2558   83.6807   15.2620 S.3     1  UNL1       -0.0709
      2 C          63.9455   90.1222   15.1389 C.2     1  UNL1        0.1223
      3 C          63.2501   89.9392   16.4553 C.2     1  UNL1        0.0343
      4 C          63.0359   88.5601   17.0050 C.2     1  UNL1        0.0232
      5 C          63.5170   87.3640   16.2383 C.2     1  UNL1        0.0975
      6 N          63.4486   85.8934   16.5260 N.2     1  UNL1       -0.2200
      7 C          64.1018   85.1675   15.3873 C.2     1  UNL1        0.1901
      8 N          64.5738   86.1894   14.3959 N.2     1  UNL1       -0.2236
      9 C          64.2124   87.5469   14.9219 C.2     1  UNL1        0.0863
     10 C          64.4266   88.9260   14.3722 C.3     1  UNL1        0.1112
     11 C          65.0125   91.6990   13.3712 C.3     1  UNL1        0.2520
     12 O          64.1597   91.5013   14.5892 O.2     1  UNL1       -0.4753
     13 C          63.4304   82.9225   14.2652 C.3     1  UNL1        0.0913
     14 C          63.3906   83.3655   12.8326 C.ar    1  UNL1       -0.0109
     15 C          64.3115   82.7388   11.8279 C.ar    1  UNL1       -0.0034
     16 C          64.2718   83.1817   10.3954 C.ar    1  UNL1       -0.0003
     17 C          63.3112   84.2514    9.9674 C.ar    1  UNL1       -0.0000
     18 C          63.2715   84.6943    8.5349 C.ar    1  UNL1       -0.0000
     19 C          62.3110   85.7640    8.1070 C.ar    1  UNL1       -0.0000
     20 C          61.3902   86.3908    9.1116 C.ar    1  UNL1       -0.0000
     21 C          61.4299   85.9478   10.5441 C.ar    1  UNL1       -0.0000
     22 C          62.3904   84.8782   10.9720 C.ar    1  UNL1       -0.0003
     23 C          62.4301   84.4352   12.4046 C.ar    1  UNL1       -0.0034
@<TRIPOS>BOND
     1    11    12    1
     2    12     2    1
     3     2     3    2
     4     3     4    1
     5     4     5    2
     6     5     6    1
     7     6     7    2
     8     7     1    1
     9     1    13    1
    10    13    14    1
    11    14    15   ar
    12    15    16   ar
    13    16    17   ar
    14    17    18   ar
    15    18    19   ar
    16    19    20   ar
    17    20    21   ar
    18    21    22   ar
    19    22    23   ar
    20     7     8    1
    21     8     9    2
    22     9    10    1
    23    10     2    1
    24     9     5    1
    25    23    14   ar
    26    22    17   ar
@<TRIPOS>MOLECULE
*****
 23 26 0 0 0
SMALL
GASTEIGER

@<TRIPOS>ATOM
      1 S          61.0675   89.1028   11.1977 S.3     1  UNL1       -0.0709
      2 C          65.9920   91.7380   14.4240 C.2     1  UNL1        0.1223
      3 C          66.1092   92.5935   13.1975 C.2     1  UNL1        0.0343
      4 C          65.1574   92.4002   12.0544 C.2     1  UNL1        0.0232
      5 C          64.0883   91.3514   12.1377 C.2     1  UNL1        0.0975
      6 N          63.0149   90.9337   11.1769 N.2     1  UNL1       -0.2200
      7 C          62.2342   89.8200   11.8095 C.2     1  UNL1        0.1901
      8 N          62.8251   89.5494   13.1614 N.2     1  UNL1       -0.2236
      9 C          63.9710   90.4958   13.3643 C.2     1  UNL1        0.0863
     10 C          64.9228   90.6891   14.5074 C.3     1  UNL1        0.1112
     11 C          67.6790   93.2299   15.7195 C.3     1  UNL1        0.2520
     12 O          66.9438   91.9313   15.5671 O.2     1  UNL1       -0.4753
     13 C          61.2523   88.3064    9.9401 C.3     1  UNL1        0.0913
     14 C          61.9271   86.9677    9.9925 C.ar    1  UNL1       -0.0109
     15 C          62.4593   86.3464    8.7351 C.ar    1  UNL1       -0.0034
     16 C          63.1341   85.0079    8.7874 C.ar    1  UNL1       -0.0003
     17 C          63.2768   84.2905   10.0971 C.ar    1  UNL1       -0.0000
     18 C          63.9516   82.9519   10.1494 C.ar    1  UNL1       -0.0000
     19 C          64.0942   82.2346   11.4589 C.ar    1  UNL1       -0.0000
     20 C          63.5621   82.8559   12.7163 C.ar    1  UNL1       -0.0000
     21 C          62.8872   84.1945   12.6640 C.ar    1  UNL1       -0.0000
     22 C          62.7446   84.9118   11.3544 C.ar    1  UNL1       -0.0003
     23 C          62.0697   86.2504   11.3020 C.ar    1  UNL1       -0.0034
@<TRIPOS>BOND
     1    11    12    1
     2    12     2    1
     3     2     3    2
     4     3     4    1
     5     4     5    2
     6     5     6    1
     7     6     7    2
     8     7     1    1
     9     1    13    1
    10    13    14    1
    11    14    15   ar
    12    15    16   ar
    13    16    17   ar
    14    17    18   ar
    15    18    19   ar
    16    19    20   ar
    17    20    21   ar
    18    21    22   ar
    19    22    23   ar
    20     7     8    1
    21     8     9    2
    22     9    10    1
    23    10     2    1
    24     9     5    1
    25    23    14   ar
    26    22    17   ar
@<TRIPOS>MOLECULE
*****
 23 26 0 0 0
SMALL
GASTEIGER

@<TRIPOS>ATOM
      1 S          61.2035   88.0399    9.8309 S.3     1  UNL1       -0.0709
      2 C          63.5339   82.5769   12.3464 C.2     1  UNL1        0.1223
      3 C          64.1065   82.3942   10.9721 C.2     1  UNL1        0.0343
      4 C          63.8622   83.4292    9.9142 C.2     1  UNL1        0.0232
      5 C          63.0453   84.6468   10.2306 C.2     1  UNL1        0.0975
      6 N          62.6395   85.8272    9.3988 N.2     1  UNL1       -0.2200
      7 C          61.8162   86.7394   10.2590 C.2     1  UNL1        0.1901
      8 N          61.7131   86.1228   11.6225 N.2     1  UNL1       -0.2236
      9 C          62.4727   84.8295   11.6049 C.2     1  UNL1        0.0863
     10 C          62.7170   83.7945   12.6628 C.3     1  UNL1        0.1112
     11 C          62.7329   80.5066   13.6963 C.3     1  UNL1        0.2520
     12 O          63.7782   81.5419   13.4043 O.2     1  UNL1       -0.4753
     13 C          61.0582   89.1610   10.8168 C.3     1  UNL1        0.0913
     14 C          62.2516   89.9881   11.1934 C.ar    1  UNL1       -0.0109
     15 C          62.8179   90.9758   10.2169 C.ar    1  UNL1       -0.0034
     16 C          64.0113   91.8029   10.5934 C.ar    1  UNL1       -0.0003
     17 C          64.6385   91.6421   11.9465 C.ar    1  UNL1       -0.0000
     18 C          65.8319   92.4691   12.3230 C.ar    1  UNL1       -0.0000
     19 C          66.4590   92.3084   13.6761 C.ar    1  UNL1       -0.0000
     20 C          65.8927   91.3206   14.6526 C.ar    1  UNL1       -0.0000
     21 C          64.6993   90.4936   14.2761 C.ar    1  UNL1       -0.0000
     22 C          64.0722   90.6543   12.9231 C.ar    1  UNL1       -0.0003
     23 C          62.8787   89.8273   12.5465 C.ar    1  UNL1       -0.0034
@<TRIPOS>BOND
     1    11    12    1
     2    12     2    1
     3     2     3    2
     4     3     4    1
     5     4     5    2
     6     5     6    1
     7     6     7    2
     8     7     1    1
     9     1    13    1
    10    13    14    1
    11    14    15   ar
    12    15    16   ar
    13    16    17   ar
    14    17    18   ar
    15    18    19   ar
    16    19    20   ar
    17    20    21   ar
    18    21    22   ar
    19    22    23   ar
    20     7     8    1
    21     8     9    2
    22     9    10    1
    23    10     2    1
    24     9     5    1
    25    23    14   ar
    26    22    17   ar
@<TRIPOS>MOLECULE
*****
 23 26 0 0 0
SMALL
GASTEIGER

@<TRIPOS>ATOM
      1 S          63.5160   83.3857   14.2025 S.3     1  UNL1       -0.0709
      2 C          61.3357   86.4314    8.9515 C.2     1  UNL1        0.1223
      3 C          62.3503   85.5783    8.2496 C.2     1  UNL1        0.0343
      4 C          63.1969   84.6207    9.0346 C.2     1  UNL1        0.0232
      5 C          63.0288   84.5161   10.5214 C.2     1  UNL1        0.0975
      6 N          63.7149   83.6692   11.5520 N.2     1  UNL1       -0.2200
      7 C          63.1243   83.9989   12.8908 C.2     1  UNL1        0.1901
      8 N          62.0731   85.0495   12.6877 N.2     1  UNL1       -0.2236
      9 C          62.0141   85.3692   11.2234 C.2     1  UNL1        0.0863
     10 C          61.1675   86.3268   10.4384 C.3     1  UNL1        0.1112
     11 C          59.1182   86.9813    7.7144 C.3     1  UNL1        0.2520
     12 O          60.4891   87.3890    8.1665 O.2     1  UNL1       -0.4753
     13 C          64.4242   84.1291   15.1365 C.3     1  UNL1        0.0913
     14 C          64.0792   85.5244   15.5658 C.ar    1  UNL1       -0.0109
     15 C          63.2593   85.7477   16.8019 C.ar    1  UNL1       -0.0034
     16 C          62.9143   87.1429   17.2312 C.ar    1  UNL1       -0.0003
     17 C          63.3893   88.3149   16.4244 C.ar    1  UNL1       -0.0000
     18 C          63.0444   89.7101   16.8537 C.ar    1  UNL1       -0.0000
     19 C          63.5194   90.8821   16.0470 C.ar    1  UNL1       -0.0000
     20 C          64.3394   90.6588   14.8110 C.ar    1  UNL1       -0.0000
     21 C          64.6843   89.2636   14.3816 C.ar    1  UNL1       -0.0000
     22 C          64.2093   88.0916   15.1884 C.ar    1  UNL1       -0.0003
     23 C          64.5543   86.6963   14.7591 C.ar    1  UNL1       -0.0034
@<TRIPOS>BOND
     1    11    12    1
     2    12     2    1
     3     2     3    2
     4     3     4    1
     5     4     5    2
     6     5     6    1
     7     6     7    2
     8     7     1    1
     9     1    13    1
    10    13    14    1
    11    14    15   ar
    12    15    16   ar
    13    16    17   ar
    14    17    18   ar
    15    18    19   ar
    16    19    20   ar
    17    20    21   ar
    18    21    22   ar
    19    22    23   ar
    20     7     8    1
    21     8     9    2
    22     9    10    1
    23    10     2    1
    24     9     5    1
    25    23    14   ar
    26    22    17   ar
@<TRIPOS>MOLECULE
*****
 23 26 0 0 0
SMALL
GASTEIGER

@<TRIPOS>ATOM
      1 S          61.8429   87.9891   10.8182 S.3     1  UNL1       -0.0709
      2 C          63.3323   82.5070   13.8731 C.2     1  UNL1        0.1223
      3 C          64.2210   83.4046   14.6821 C.2     1  UNL1        0.0343
      4 C          64.2733   84.8739   14.3851 C.2     1  UNL1        0.0232
      5 C          63.4368   85.4458   13.2792 C.2     1  UNL1        0.0975
      6 N          63.2808   86.8440   12.7588 N.2     1  UNL1       -0.2200
      7 C          62.2956   86.8106   11.6282 C.2     1  UNL1        0.1901
      8 N          61.8427   85.3918   11.4497 N.2     1  UNL1       -0.2236
      9 C          62.5480   84.5483   12.4701 C.2     1  UNL1        0.0863
     10 C          62.4957   83.0789   12.7670 C.3     1  UNL1        0.1112
     11 C          62.4225   80.1337   13.3348 C.3     1  UNL1        0.2520
     12 O          63.2800   81.0377   14.1700 O.2     1  UNL1       -0.4753
     13 C          61.6454   89.3215   11.4782 C.3     1  UNL1        0.0913
     14 C          62.8190   90.2280   11.7038 C.ar    1  UNL1       -0.0109
     15 C          63.2330   91.1985   10.6375 C.ar    1  UNL1       -0.0034
     16 C          64.4065   92.1050   10.8631 C.ar    1  UNL1       -0.0003
     17 C          65.1663   92.0411   12.1549 C.ar    1  UNL1       -0.0000
     18 C          66.3398   92.9476   12.3804 C.ar    1  UNL1       -0.0000
     19 C          67.0995   92.8837   13.6722 C.ar    1  UNL1       -0.0000
     20 C          66.6856   91.9132   14.7385 C.ar    1  UNL1       -0.0000
     21 C          65.5120   91.0067   14.5130 C.ar    1  UNL1       -0.0000
     22 C          64.7523   91.0706   13.2212 C.ar    1  UNL1       -0.0003
     23 C          63.5787   90.1641   12.9956 C.ar    1  UNL1       -0.0034
@<TRIPOS>BOND
     1    11    12    1
     2    12     2    1
     3     2     3    2
     4     3     4    1
     5     4     5    2
     6     5     6    1
     7     6     7    2
     8     7     1    1
     9     1    13    1
    10    13    14    1
    11    14    15   ar
    12    15    16   ar
    13    16    17   ar
    14    17    18   ar
    15    18    19   ar
    16    19    20   ar
    17    20    21   ar
    18    21    22   ar
    19    22    23   ar
    20     7     8    1
    21     8     9    2
    22     9    10    1
    23    10     2    1
    24     9     5    1
    25    23    14   ar
    26    22    17   ar
@<TRIPOS>MOLECULE
*****
 23 26 0 0 0
SMALL
GASTEIGER

@<TRIPOS>ATOM
      1 S          60.6714   89.5629    9.6607 S.3     1  UNL1       -0.0709
      2 C          65.3847   92.0242   13.3117 C.2     1  UNL1        0.1223
      3 C          65.8616   92.5895   12.0067 C.2     1  UNL1        0.0343
      4 C          65.0960   92.3158   10.7462 C.2     1  UNL1        0.0232
      5 C          63.8535   91.4767   10.7907 C.2     1  UNL1        0.0975
      6 N          62.8982   91.0404    9.7197 N.2     1  UNL1       -0.2200
      7 C          61.8308   90.2053   10.3627 C.2     1  UNL1        0.1901
      8 N          62.1264   90.1256   11.8311 N.2     1  UNL1       -0.2236
      9 C          63.3765   90.9114   12.0956 C.2     1  UNL1        0.0863
     10 C          64.1421   91.1851   13.3562 C.3     1  UNL1        0.1112
     11 C          67.0297   93.5094   14.6675 C.3     1  UNL1        0.2520
     12 O          66.1503   92.2980   14.5722 O.2     1  UNL1       -0.4753
     13 C          60.8343   88.2151    9.0227 C.3     1  UNL1        0.0913
     14 C          61.4223   87.0799    9.8075 C.ar    1  UNL1       -0.0109
     15 C          61.1256   86.9477   11.2719 C.ar    1  UNL1       -0.0034
     16 C          61.7136   85.8126   12.0567 C.ar    1  UNL1       -0.0003
     17 C          62.5982   84.8097   11.3771 C.ar    1  UNL1       -0.0000
     18 C          63.1861   83.6747   12.1619 C.ar    1  UNL1       -0.0000
     19 C          64.0707   82.6719   11.4822 C.ar    1  UNL1       -0.0000
     20 C          64.3673   82.8042   10.0178 C.ar    1  UNL1       -0.0000
     21 C          63.7794   83.9392    9.2330 C.ar    1  UNL1       -0.0000
     22 C          62.8948   84.9420    9.9127 C.ar    1  UNL1       -0.0003
     23 C          62.3068   86.0772    9.1279 C.ar    1  UNL1       -0.0034
@<TRIPOS>BOND
     1    11    12    1
     2    12     2    1
     3     2     3    2
     4     3     4    1
     5     4     5    2
     6     5     6    1
     7     6     7    2
     8     7     1    1
     9     1    13    1
    10    13    14    1
    11    14    15   ar
    12    15    16   ar
    13    16    17   ar
    14    17    18   ar
    15    18    19   ar
    16    19    20   ar
    17    20    21   ar
    18    21    22   ar
    19    22    23   ar
    20     7     8    1
    21     8     9    2
    22     9    10    1
    23    10     2    1
    24     9     5    1
    25    23    14   ar
    26    22    17   ar
@<TRIPOS>MOLECULE
*****
 23 26 0 0 0
SMALL
GASTEIGER

@<TRIPOS>ATOM
      1 S          63.8679   88.2742   14.9920 S.3     1  UNL1       -0.0709
      2 C          65.9555   93.5189   11.8715 C.2     1  UNL1        0.1223
      3 C          65.0166   93.0425   10.8031 C.2     1  UNL1        0.0343
      4 C          64.2191   91.7891   11.0100 C.2     1  UNL1        0.0232
      5 C          64.3604   91.0121   12.2852 C.2     1  UNL1        0.0975
      6 N          63.7099   89.7500   12.7689 N.2     1  UNL1       -0.2200
      7 C          64.2467   89.4464   14.1363 C.2     1  UNL1        0.1901
      8 N          65.2290   90.5209   14.4977 N.2     1  UNL1       -0.2236
      9 C          65.2993   91.4885   13.3537 C.2     1  UNL1        0.0863
     10 C          66.0968   92.7419   13.1468 C.3     1  UNL1        0.1112
     11 C          66.4007   95.7099   10.5480 C.3     1  UNL1        0.2520
     12 O          66.7531   94.7724   11.6646 O.2     1  UNL1       -0.4753
     13 C          64.6754   87.0114   14.9344 C.3     1  UNL1        0.0913
     14 C          63.9874   85.6877   14.7769 C.ar    1  UNL1       -0.0109
     15 C          63.1211   85.1568   15.8803 C.ar    1  UNL1       -0.0034
     16 C          62.4332   83.8332   15.7229 C.ar    1  UNL1       -0.0003
     17 C          62.6115   83.0405   14.4620 C.ar    1  UNL1       -0.0000
     18 C          61.9236   81.7169   14.3045 C.ar    1  UNL1       -0.0000
     19 C          62.1019   80.9243   13.0436 C.ar    1  UNL1       -0.0000
     20 C          62.9683   81.4553   11.9402 C.ar    1  UNL1       -0.0000
     21 C          63.6562   82.7788   12.0976 C.ar    1  UNL1       -0.0000
     22 C          63.4778   83.5715   13.3585 C.ar    1  UNL1       -0.0003
     23 C          64.1658   84.8951   13.5160 C.ar    1  UNL1       -0.0034
@<TRIPOS>BOND
     1    11    12    1
     2    12     2    1
     3     2     3    2
     4     3     4    1
     5     4     5    2
     6     5     6    1
     7     6     7    2
     8     7     1    1
     9     1    13    1
    10    13    14    1
    11    14    15   ar
    12    15    16   ar
    13    16    17   ar
    14    17    18   ar
    15    18    19   ar
    16    19    20   ar
    17    20    21   ar
    18    21    22   ar
    19    22    23   ar
    20     7     8    1
    21     8     9    2
    22     9    10    1
    23    10     2    1
    24     9     5    1
    25    23    14   ar
    26    22    17   ar
@<TRIPOS>MOLECULE
*****
 23 26 0 0 0
SMALL
GASTEIGER

@<TRIPOS>ATOM
      1 S          63.2806   88.0100   16.9524 S.3     1  UNL1       -0.0709
      2 C          63.9494   82.9653   12.9892 C.2     1  UNL1        0.1223
      3 C          62.9560   82.3289   13.9155 C.2     1  UNL1        0.0343
      4 C          62.4244   83.0981   15.0884 C.2     1  UNL1        0.0232
      5 C          62.8862   84.5038   15.3350 C.2     1  UNL1        0.0975
      6 N          62.5409   85.5013   16.4006 N.2     1  UNL1       -0.2200
      7 C          63.3209   86.7543   16.1329 C.2     1  UNL1        0.1901
      8 N          64.1483   86.5311   14.9018 N.2     1  UNL1       -0.2236
      9 C          63.8796   85.1402   14.4086 C.2     1  UNL1        0.0863
     10 C          64.4113   84.3710   13.2358 C.3     1  UNL1        0.1112
     11 C          64.1994   82.6672   10.4205 C.3     1  UNL1        0.2520
     12 O          64.4811   82.1960   11.8164 O.2     1  UNL1       -0.4753
     13 C          62.6668   89.2559   16.3859 C.3     1  UNL1        0.0913
     14 C          63.3826   90.0246   15.3150 C.ar    1  UNL1       -0.0109
     15 C          64.6166   90.8080   15.6518 C.ar    1  UNL1       -0.0034
     16 C          65.3325   91.5767   14.5810 C.ar    1  UNL1       -0.0003
     17 C          64.8143   91.5621   13.1733 C.ar    1  UNL1       -0.0000
     18 C          65.5301   92.3308   12.1026 C.ar    1  UNL1       -0.0000
     19 C          65.0119   92.3161   10.6950 C.ar    1  UNL1       -0.0000
     20 C          63.7778   91.5327   10.3583 C.ar    1  UNL1       -0.0000
     21 C          63.0620   90.7640   11.4291 C.ar    1  UNL1       -0.0000
     22 C          63.5802   90.7787   12.8366 C.ar    1  UNL1       -0.0003
     23 C          62.8644   90.0099   13.9075 C.ar    1  UNL1       -0.0034
@<TRIPOS>BOND
     1    11    12    1
     2    12     2    1
     3     2     3    2
     4     3     4    1
     5     4     5    2
     6     5     6    1
     7     6     7    2
     8     7     1    1
     9     1    13    1
    10    13    14    1
    11    14    15   ar
    12    15    16   ar
    13    16    17   ar
    14    17    18   ar
    15    18    19   ar
    16    19    20   ar
    17    20    21   ar
    18    21    22   ar
    19    22    23   ar
    20     7     8    1
    21     8     9    2
    22     9    10    1
    23    10     2    1
    24     9     5    1
    25    23    14   ar
    26    22    17   ar
