@<TRIPOS>MOLECULE
*****
 24 25 0 0 0
SMALL
GASTEIGER

@<TRIPOS>ATOM
      1 C          64.1633   89.8882   14.2849 C.ar    1  UNL1        0.0874
      2 C          64.3776   88.4429   13.9458 C.ar    1  UNL1        0.0063
      3 C          64.0332   87.3790   14.9455 C.ar    1  UNL1        0.0115
      4 C          63.4745   87.7604   16.2843 C.ar    1  UNL1        0.1326
      5 O          63.1301   86.6964   17.2840 O.3     1  UNL1       -0.5057
      6 C          63.2601   89.2057   16.6234 C.ar    1  UNL1        0.0730
      7 C          63.6045   90.2697   15.6237 C.ar    1  UNL1        0.1410
      8 O          63.3902   91.7151   15.9628 O.3     1  UNL1       -0.5053
      9 H          63.2639   85.7935   17.0722 H       1  UNL1        0.2922
     10 H          63.0412   91.9534   16.7991 H       1  UNL1        0.2922
     11 N          65.8267   91.6615   13.3691 N.am    1  UNL1       -0.2536
     12 C          64.5077   90.9523   13.2852 C.2     1  UNL1        0.2557
     13 O          63.5330   91.3070   12.2016 O.2     1  UNL1       -0.2695
     14 C          66.1711   92.7255   12.3694 C.ar    1  UNL1        0.0733
     15 C          66.5102   92.3471   10.9581 C.ar    1  UNL1        0.0181
     16 C          66.8546   93.4110    9.9584 C.ar    1  UNL1        0.0220
     17 C          66.8599   94.8534   10.3701 C.ar    1  UNL1        0.0990
     18 N          66.5208   95.2318   11.7814 N.ar    1  UNL1       -0.2410
     19 C          66.1764   94.1679   12.7811 C.ar    1  UNL1        0.1137
     20 C          67.0152   92.2430   15.6051 C.3     1  UNL1        0.0237
     21 C          66.8014   91.3068   14.4527 C.3     1  UNL1        0.0986
     22 C          64.2475   85.9336   14.6064 C.3     1  UNL1        0.0253
     23 C          65.5520   85.2711   14.9372 C.3     1  UNL1        0.0048
     24 C          63.1574   85.1507   13.9366 C.3     1  UNL1        0.0048
@<TRIPOS>BOND
     1    20    21    1
     2    21    11    1
     3    11    12   am
     4    12    13    2
     5    12     1    1
     6     1     2   ar
     7     2     3   ar
     8     3    22    1
     9    22    23    1
    10    22    24    1
    11     3     4   ar
    12     4     5    1
    13     4     6   ar
    14     6     7   ar
    15     7     8    1
    16    11    14    1
    17    14    15   ar
    18    15    16   ar
    19    16    17   ar
    20    17    18   ar
    21    18    19   ar
    22     7     1   ar
    23    19    14   ar
    24     5     9    1
    25     8    10    1
@<TRIPOS>MOLECULE
*****
 24 25 0 0 0
SMALL
GASTEIGER

@<TRIPOS>ATOM
      1 C          63.8235   86.7889   14.8294 C.ar    1  UNL1        0.0874
      2 C          64.3014   88.0205   14.1190 C.ar    1  UNL1        0.0063
      3 C          64.1768   89.3622   14.7779 C.ar    1  UNL1        0.0115
      4 C          63.5743   89.4723   16.1471 C.ar    1  UNL1        0.1326
      5 O          63.4496   90.8142   16.8060 O.3     1  UNL1       -0.5057
      6 C          63.0964   88.2407   16.8575 C.ar    1  UNL1        0.0730
      7 C          63.2210   86.8990   16.1986 C.ar    1  UNL1        0.1410
      8 O          62.7431   85.6672   16.9090 O.3     1  UNL1       -0.5053
      9 H          63.7482   91.5835   16.3622 H       1  UNL1        0.2922
     10 H          62.3667   85.7360   17.7643 H       1  UNL1        0.2922
     11 N          63.3022   85.2024   12.8390 N.am    1  UNL1       -0.2536
     12 C          63.9482   85.4470   14.1705 C.2     1  UNL1        0.2557
     13 O          64.7188   84.3499   14.8432 O.2     1  UNL1       -0.2695
     14 C          63.4268   83.8605   12.1802 C.ar    1  UNL1        0.0733
     15 C          62.5879   82.7112   12.6547 C.ar    1  UNL1        0.0181
     16 C          62.7125   81.3694   11.9959 C.ar    1  UNL1        0.0220
     17 C          63.6760   81.1770   10.8626 C.ar    1  UNL1        0.0990
     18 N          64.5149   82.3263   10.3880 N.ar    1  UNL1       -0.2410
     19 C          64.3903   83.6681   11.0468 C.ar    1  UNL1        0.1137
     20 C          61.5402   85.9688   11.0903 C.3     1  UNL1        0.0237
     21 C          62.5316   86.2995   12.1664 C.3     1  UNL1        0.0986
     22 C          64.6547   90.5939   14.0675 C.3     1  UNL1        0.0253
     23 C          65.9415   91.2455   14.4793 C.3     1  UNL1        0.0048
     24 C          63.8458   91.1740   12.9454 C.3     1  UNL1        0.0048
@<TRIPOS>BOND
     1    20    21    1
     2    21    11    1
     3    11    12   am
     4    12    13    2
     5    12     1    1
     6     1     2   ar
     7     2     3   ar
     8     3    22    1
     9    22    23    1
    10    22    24    1
    11     3     4   ar
    12     4     5    1
    13     4     6   ar
    14     6     7   ar
    15     7     8    1
    16    11    14    1
    17    14    15   ar
    18    15    16   ar
    19    16    17   ar
    20    17    18   ar
    21    18    19   ar
    22     7     1   ar
    23    19    14   ar
    24     5     9    1
    25     8    10    1
@<TRIPOS>MOLECULE
*****
 24 25 0 0 0
SMALL
GASTEIGER

@<TRIPOS>ATOM
      1 C          63.9248   89.9276   13.7857 C.ar    1  UNL1        0.0874
      2 C          65.0627   90.7724   13.2944 C.ar    1  UNL1        0.0063
      3 C          65.7008   91.7760   14.2084 C.ar    1  UNL1        0.0115
      4 C          65.2011   91.9349   15.6138 C.ar    1  UNL1        0.1326
      5 O          65.8393   92.9386   16.5278 O.3     1  UNL1       -0.5057
      6 C          64.0632   91.0901   16.1051 C.ar    1  UNL1        0.0730
      7 C          63.4250   90.0865   15.1911 C.ar    1  UNL1        0.1410
      8 O          62.2871   89.2416   15.6824 O.3     1  UNL1       -0.5053
      9 H          66.5501   93.4663   16.2209 H       1  UNL1        0.2922
     10 H          61.9749   89.3408   16.5602 H       1  UNL1        0.2922
     11 N          62.5239   89.3863   11.6657 N.am    1  UNL1       -0.2536
     12 C          63.2866   88.9239   12.8717 C.2     1  UNL1        0.2557
     13 O          63.4112   87.4579   13.1637 O.2     1  UNL1       -0.2695
     14 C          61.8857   88.3826   10.7517 C.ar    1  UNL1        0.0733
     15 C          62.7407   87.5177    9.8736 C.ar    1  UNL1        0.0181
     16 C          62.1026   86.5141    8.9596 C.ar    1  UNL1        0.0220
     17 C          60.6095   86.3753    8.9237 C.ar    1  UNL1        0.0990
     18 N          59.7545   87.2401    9.8017 N.ar    1  UNL1       -0.2410
     19 C          60.3926   88.2438   10.7157 C.ar    1  UNL1        0.1137
     20 C          63.1242   91.4481   10.2033 C.3     1  UNL1        0.0237
     21 C          62.3993   90.8523   11.3737 C.3     1  UNL1        0.0986
     22 C          66.8388   92.6209   13.7171 C.3     1  UNL1        0.0253
     23 C          66.5647   93.8346   12.8794 C.3     1  UNL1        0.0048
     24 C          68.2509   92.2521   14.0636 C.3     1  UNL1        0.0048
@<TRIPOS>BOND
     1    20    21    1
     2    21    11    1
     3    11    12   am
     4    12    13    2
     5    12     1    1
     6     1     2   ar
     7     2     3   ar
     8     3    22    1
     9    22    23    1
    10    22    24    1
    11     3     4   ar
    12     4     5    1
    13     4     6   ar
    14     6     7   ar
    15     7     8    1
    16    11    14    1
    17    14    15   ar
    18    15    16   ar
    19    16    17   ar
    20    17    18   ar
    21    18    19   ar
    22     7     1   ar
    23    19    14   ar
    24     5     9    1
    25     8    10    1
@<TRIPOS>MOLECULE
*****
 24 25 0 0 0
SMALL
GASTEIGER

@<TRIPOS>ATOM
      1 C          64.3427   89.1604   15.1055 C.ar    1  UNL1        0.0874
      2 C          64.5061   87.7502   14.6210 C.ar    1  UNL1        0.0063
      3 C          63.8452   86.6229   15.3575 C.ar    1  UNL1        0.0115
      4 C          63.0211   86.9058   16.5785 C.ar    1  UNL1        0.1326
      5 O          62.3602   85.7784   17.3150 O.3     1  UNL1       -0.5057
      6 C          62.8578   88.3159   17.0630 C.ar    1  UNL1        0.0730
      7 C          63.5186   89.4432   16.3265 C.ar    1  UNL1        0.1410
      8 O          63.3553   90.8535   16.8110 O.3     1  UNL1       -0.5053
      9 H          62.4623   84.8975   17.0123 H       1  UNL1        0.2922
     10 H          62.8405   91.0302   17.5737 H       1  UNL1        0.2922
     11 N          64.3270   90.9070   13.1822 N.am    1  UNL1       -0.2536
     12 C          65.0036   90.2878   14.3691 C.2     1  UNL1        0.2557
     13 O          66.3411   90.7959   14.8195 O.2     1  UNL1       -0.2695
     14 C          64.9878   92.0344   12.4457 C.ar    1  UNL1        0.0733
     15 C          64.8227   92.1585   10.9600 C.ar    1  UNL1        0.0181
     16 C          65.4835   93.2858   10.2235 C.ar    1  UNL1        0.0220
     17 C          66.3094   94.2890   10.9727 C.ar    1  UNL1        0.0990
     18 N          66.4745   94.1649   12.4585 N.ar    1  UNL1       -0.2410
     19 C          65.8137   93.0376   13.1949 C.ar    1  UNL1        0.1137
     20 C          62.9087   89.2624   11.7560 C.3     1  UNL1        0.0237
     21 C          62.9895   90.3988   12.7317 C.3     1  UNL1        0.0986
     22 C          64.0085   85.2127   14.8730 C.3     1  UNL1        0.0253
     23 C          62.7991   84.3662   14.6073 C.3     1  UNL1        0.0048
     24 C          65.3813   84.6491   14.6543 C.3     1  UNL1        0.0048
@<TRIPOS>BOND
     1    20    21    1
     2    21    11    1
     3    11    12   am
     4    12    13    2
     5    12     1    1
     6     1     2   ar
     7     2     3   ar
     8     3    22    1
     9    22    23    1
    10    22    24    1
    11     3     4   ar
    12     4     5    1
    13     4     6   ar
    14     6     7   ar
    15     7     8    1
    16    11    14    1
    17    14    15   ar
    18    15    16   ar
    19    16    17   ar
    20    17    18   ar
    21    18    19   ar
    22     7     1   ar
    23    19    14   ar
    24     5     9    1
    25     8    10    1
@<TRIPOS>MOLECULE
*****
 24 25 0 0 0
SMALL
GASTEIGER

@<TRIPOS>ATOM
      1 C          64.9559   90.7315   14.5268 C.ar    1  UNL1        0.0874
      2 C          64.8671   89.2929   14.1116 C.ar    1  UNL1        0.0063
      3 C          64.0932   88.3173   14.9478 C.ar    1  UNL1        0.0115
      4 C          63.4081   88.7804   16.1993 C.ar    1  UNL1        0.1326
      5 O          62.6342   87.8048   17.0356 O.3     1  UNL1       -0.5057
      6 C          63.4969   90.2190   16.6145 C.ar    1  UNL1        0.0730
      7 C          64.2708   91.1946   15.7783 C.ar    1  UNL1        0.1410
      8 O          64.3597   92.6333   16.1935 O.3     1  UNL1       -0.5053
      9 H          62.5787   86.9061   16.7762 H       1  UNL1        0.2922
     10 H          63.9317   92.9226   16.9753 H       1  UNL1        0.2922
     11 N          65.2725   92.0303   12.2990 N.am    1  UNL1       -0.2536
     12 C          65.7299   91.7071   13.6905 C.2     1  UNL1        0.2557
     13 O          66.9612   92.3594   14.2458 O.2     1  UNL1       -0.2695
     14 C          66.0464   93.0060   11.4628 C.ar    1  UNL1        0.0733
     15 C          65.7338   94.4711   11.5375 C.ar    1  UNL1        0.0181
     16 C          66.5077   95.4467   10.7013 C.ar    1  UNL1        0.0220
     17 C          67.5942   94.9572    9.7904 C.ar    1  UNL1        0.0990
     18 N          67.9067   93.4920    9.7156 N.ar    1  UNL1       -0.2410
     19 C          67.1329   92.5164   10.5518 C.ar    1  UNL1        0.1137
     20 C          63.6500   91.6089   10.3141 C.3     1  UNL1        0.0237
     21 C          64.0412   91.3780   11.7437 C.3     1  UNL1        0.0986
     22 C          64.0043   86.8786   14.5326 C.3     1  UNL1        0.0253
     23 C          63.4129   86.5171   13.2024 C.3     1  UNL1        0.0048
     24 C          64.5069   85.8016   15.4476 C.3     1  UNL1        0.0048
@<TRIPOS>BOND
     1    20    21    1
     2    21    11    1
     3    11    12   am
     4    12    13    2
     5    12     1    1
     6     1     2   ar
     7     2     3   ar
     8     3    22    1
     9    22    23    1
    10    22    24    1
    11     3     4   ar
    12     4     5    1
    13     4     6   ar
    14     6     7   ar
    15     7     8    1
    16    11    14    1
    17    14    15   ar
    18    15    16   ar
    19    16    17   ar
    20    17    18   ar
    21    18    19   ar
    22     7     1   ar
    23    19    14   ar
    24     5     9    1
    25     8    10    1
@<TRIPOS>MOLECULE
*****
 24 25 0 0 0
SMALL
GASTEIGER

@<TRIPOS>ATOM
      1 C          64.0493   89.4313   14.5404 C.ar    1  UNL1        0.0874
      2 C          65.2503   90.2889   14.2719 C.ar    1  UNL1        0.0063
      3 C          65.5346   91.4755   15.1443 C.ar    1  UNL1        0.0115
      4 C          64.6181   91.8044   16.2853 C.ar    1  UNL1        0.1326
      5 O          64.9025   92.9910   17.1577 O.3     1  UNL1       -0.5057
      6 C          63.4172   90.9467   16.5538 C.ar    1  UNL1        0.0730
      7 C          63.1328   89.7602   15.6813 C.ar    1  UNL1        0.1410
      8 O          61.9318   88.9025   15.9498 O.3     1  UNL1       -0.5053
      9 H          65.6527   93.5268   16.9900 H       1  UNL1        0.2922
     10 H          61.3592   89.1079   16.6625 H       1  UNL1        0.2922
     11 N          63.9683   86.8569   14.1996 N.am    1  UNL1       -0.2536
     12 C          63.7649   88.2447   13.6680 C.2     1  UNL1        0.2557
     13 O          63.2771   88.4459   12.2638 O.2     1  UNL1       -0.2695
     14 C          63.6838   85.6703   13.3272 C.ar    1  UNL1        0.0733
     15 C          62.6683   85.7737   12.2281 C.ar    1  UNL1        0.0181
     16 C          62.3838   84.5872   11.3557 C.ar    1  UNL1        0.0220
     17 C          63.1149   83.2972   11.5823 C.ar    1  UNL1        0.0990
     18 N          64.1305   83.1938   12.6814 N.ar    1  UNL1       -0.2410
     19 C          64.4149   84.3803   13.5538 C.ar    1  UNL1        0.1137
     20 C          63.5650   86.0076   16.6217 C.3     1  UNL1        0.0237
     21 C          64.4561   86.6557   15.6038 C.3     1  UNL1        0.0986
     22 C          66.7356   92.3332   14.8758 C.3     1  UNL1        0.0253
     23 C          68.0229   92.0689   15.5991 C.3     1  UNL1        0.0048
     24 C          66.6494   93.4552   13.8841 C.3     1  UNL1        0.0048
@<TRIPOS>BOND
     1    20    21    1
     2    21    11    1
     3    11    12   am
     4    12    13    2
     5    12     1    1
     6     1     2   ar
     7     2     3   ar
     8     3    22    1
     9    22    23    1
    10    22    24    1
    11     3     4   ar
    12     4     5    1
    13     4     6   ar
    14     6     7   ar
    15     7     8    1
    16    11    14    1
    17    14    15   ar
    18    15    16   ar
    19    16    17   ar
    20    17    18   ar
    21    18    19   ar
    22     7     1   ar
    23    19    14   ar
    24     5     9    1
    25     8    10    1
@<TRIPOS>MOLECULE
*****
 24 25 0 0 0
SMALL
GASTEIGER

@<TRIPOS>ATOM
      1 C          62.3427   89.3890   11.5676 C.ar    1  UNL1        0.0874
      2 C          62.8459   88.0318   11.1744 C.ar    1  UNL1        0.0063
      3 C          61.9720   87.1102   10.3764 C.ar    1  UNL1        0.0115
      4 C          60.5949   87.5458    9.9716 C.ar    1  UNL1        0.1326
      5 O          59.7210   86.6242    9.1735 O.3     1  UNL1       -0.5057
      6 C          60.0917   88.9031   10.3648 C.ar    1  UNL1        0.0730
      7 C          60.9656   89.8247   11.1628 C.ar    1  UNL1        0.1410
      8 O          60.4625   91.1820   11.5561 O.3     1  UNL1       -0.5053
      9 H          60.0353   85.7763    8.9278 H       1  UNL1        0.2922
     10 H          59.6023   91.4541   11.3033 H       1  UNL1        0.2922
     11 N          63.7423   89.8761   13.7016 N.am    1  UNL1       -0.2536
     12 C          63.2166   90.3107   12.3657 C.2     1  UNL1        0.2557
     13 O          63.5648   91.6670   11.8278 O.2     1  UNL1       -0.2695
     14 C          64.6162   90.7978   14.4997 C.ar    1  UNL1        0.0733
     15 C          66.0124   91.0943   14.0382 C.ar    1  UNL1        0.0181
     16 C          66.8863   92.0159   14.8362 C.ar    1  UNL1        0.0220
     17 C          66.3640   92.6411   16.0957 C.ar    1  UNL1        0.0990
     18 N          64.9679   92.3446   16.5572 N.ar    1  UNL1       -0.2410
     19 C          64.0940   91.4230   15.7592 C.ar    1  UNL1        0.1137
     20 C          64.4819   87.5874   14.6840 C.3     1  UNL1        0.0237
     21 C          63.3941   88.5199   14.2396 C.3     1  UNL1        0.0986
     22 C          62.4752   85.7529    9.9831 C.3     1  UNL1        0.0253
     23 C          62.5688   84.6618   11.0081 C.3     1  UNL1        0.0048
     24 C          62.8847   85.4868    8.5648 C.3     1  UNL1        0.0048
@<TRIPOS>BOND
     1    20    21    1
     2    21    11    1
     3    11    12   am
     4    12    13    2
     5    12     1    1
     6     1     2   ar
     7     2     3   ar
     8     3    22    1
     9    22    23    1
    10    22    24    1
    11     3     4   ar
    12     4     5    1
    13     4     6   ar
    14     6     7   ar
    15     7     8    1
    16    11    14    1
    17    14    15   ar
    18    15    16   ar
    19    16    17   ar
    20    17    18   ar
    21    18    19   ar
    22     7     1   ar
    23    19    14   ar
    24     5     9    1
    25     8    10    1
@<TRIPOS>MOLECULE
*****
 24 25 0 0 0
SMALL
GASTEIGER

@<TRIPOS>ATOM
      1 C          62.3980   85.7838   12.3931 C.ar    1  UNL1        0.0874
      2 C          62.2348   84.3016   12.5557 C.ar    1  UNL1        0.0063
      3 C          63.1007   83.5538   13.5257 C.ar    1  UNL1        0.0115
      4 C          64.1296   84.2881   14.3332 C.ar    1  UNL1        0.1326
      5 O          64.9955   83.5402   15.3032 O.3     1  UNL1       -0.5057
      6 C          64.2928   85.7703   14.1706 C.ar    1  UNL1        0.0730
      7 C          63.4270   86.5181   13.2005 C.ar    1  UNL1        0.1410
      8 O          63.5901   88.0004   13.0379 O.3     1  UNL1       -0.5053
      9 H          64.8936   82.6143   15.4048 H       1  UNL1        0.2922
     10 H          64.2328   88.4591   13.5422 H       1  UNL1        0.2922
     11 N          61.6340   86.2480    9.9536 N.am    1  UNL1       -0.2536
     12 C          61.5321   86.5317   11.4230 C.2     1  UNL1        0.2557
     13 O          60.5645   87.5633   11.9223 O.2     1  UNL1       -0.2695
     14 C          60.7681   86.9959    8.9835 C.ar    1  UNL1        0.0733
     15 C          60.8079   88.4949    8.9440 C.ar    1  UNL1        0.0181
     16 C          59.9421   89.2428    7.9740 C.ar    1  UNL1        0.0220
     17 C          59.0366   88.4917    7.0435 C.ar    1  UNL1        0.0990
     18 N          58.9968   86.9928    7.0830 N.ar    1  UNL1       -0.2410
     19 C          59.8626   86.2449    8.0530 C.ar    1  UNL1        0.1137
     20 C          63.2077   85.3551    8.0891 C.3     1  UNL1        0.0237
     21 C          62.6016   85.2164    9.4542 C.3     1  UNL1        0.0986
     22 C          62.9376   82.0715   13.6884 C.3     1  UNL1        0.0253
     23 C          64.0076   81.1411   13.1991 C.3     1  UNL1        0.0048
     24 C          61.7045   81.5197   14.3402 C.3     1  UNL1        0.0048
@<TRIPOS>BOND
     1    20    21    1
     2    21    11    1
     3    11    12   am
     4    12    13    2
     5    12     1    1
     6     1     2   ar
     7     2     3   ar
     8     3    22    1
     9    22    23    1
    10    22    24    1
    11     3     4   ar
    12     4     5    1
    13     4     6   ar
    14     6     7   ar
    15     7     8    1
    16    11    14    1
    17    14    15   ar
    18    15    16   ar
    19    16    17   ar
    20    17    18   ar
    21    18    19   ar
    22     7     1   ar
    23    19    14   ar
    24     5     9    1
    25     8    10    1
@<TRIPOS>MOLECULE
*****
 24 25 0 0 0
SMALL
GASTEIGER

@<TRIPOS>ATOM
      1 C          62.7939   87.2325   11.9459 C.ar    1  UNL1        0.0874
      2 C          63.4129   87.9062   13.1345 C.ar    1  UNL1        0.0063
      3 C          63.6591   89.3857   13.1141 C.ar    1  UNL1        0.0115
      4 C          63.2861   90.1915   11.9051 C.ar    1  UNL1        0.1326
      5 O          63.5323   91.6711   11.8848 O.3     1  UNL1       -0.5057
      6 C          62.6670   89.5178   10.7165 C.ar    1  UNL1        0.0730
      7 C          62.4209   88.0383   10.7369 C.ar    1  UNL1        0.1410
      8 O          61.8018   87.3645    9.5483 O.3     1  UNL1       -0.5053
      9 H          63.9190   92.0919   12.6273 H       1  UNL1        0.2922
     10 H          61.5688   87.8678    8.7931 H       1  UNL1        0.2922
     11 N          63.1500   84.9072   13.0488 N.am    1  UNL1       -0.2536
     12 C          62.5477   85.7529   11.9662 C.2     1  UNL1        0.2557
     13 O          61.6992   85.1191   10.9040 O.2     1  UNL1       -0.2695
     14 C          62.9039   83.4276   13.0691 C.ar    1  UNL1        0.0733
     15 C          63.1898   82.6029   11.8492 C.ar    1  UNL1        0.0181
     16 C          62.9437   81.1235   11.8695 C.ar    1  UNL1        0.0220
     17 C          62.4116   80.4686   13.1097 C.ar    1  UNL1        0.0990
     18 N          62.1257   81.2933   14.3296 N.ar    1  UNL1       -0.2410
     19 C          62.3718   82.7728   14.3093 C.ar    1  UNL1        0.1137
     20 C          65.3334   84.9503   14.4563 C.3     1  UNL1        0.0237
     21 C          63.9985   85.5410   14.1110 C.3     1  UNL1        0.0986
     22 C          64.2782   90.0595   14.3027 C.3     1  UNL1        0.0253
     23 C          63.6212   89.9605   15.6476 C.3     1  UNL1        0.0048
     24 C          65.5542   90.8323   14.1465 C.3     1  UNL1        0.0048
@<TRIPOS>BOND
     1    20    21    1
     2    21    11    1
     3    11    12   am
     4    12    13    2
     5    12     1    1
     6     1     2   ar
     7     2     3   ar
     8     3    22    1
     9    22    23    1
    10    22    24    1
    11     3     4   ar
    12     4     5    1
    13     4     6   ar
    14     6     7   ar
    15     7     8    1
    16    11    14    1
    17    14    15   ar
    18    15    16   ar
    19    16    17   ar
    20    17    18   ar
    21    18    19   ar
    22     7     1   ar
    23    19    14   ar
    24     5     9    1
    25     8    10    1
