@<TRIPOS>MOLECULE
*****
 34 37 0 0 0
SMALL
GASTEIGER

@<TRIPOS>ATOM
      1 N          63.8873   87.0883   15.4077 N.am    1  UNL1       -0.2681
      2 C          64.2747   88.2711   14.5707 C.2     1  UNL1        0.3082
      3 O          64.2473   88.1722   13.0742 O.2     1  UNL1       -0.2522
      4 N          64.6895   89.5531   15.2301 N.am    1  UNL1       -0.2681
      5 H          63.9053   87.1532   16.3899 H       1  UNL1        0.1564
      6 H          64.7074   89.6180   16.2123 H       1  UNL1        0.1564
      7 C          62.8835   84.4691   12.6001 C.ar    1  UNL1        0.0546
      8 C          62.6430   83.2426   13.4296 C.ar    1  UNL1        0.0046
      9 C          62.8174   83.2981   14.9184 C.ar    1  UNL1        0.0014
     10 C          63.2321   84.5799   15.5777 C.ar    1  UNL1        0.0147
     11 C          63.4725   85.8064   14.7483 C.ar    1  UNL1        0.0517
     12 C          63.2982   85.7510   13.2595 C.ar    1  UNL1        0.0192
     13 N          62.2014   85.6151   10.3704 N.am    1  UNL1       -0.3025
     14 C          62.7092   84.4137   11.1114 C.2     1  UNL1        0.2458
     15 O          63.0426   83.1569   10.3634 O.2     1  UNL1       -0.2701
     16 H          61.9826   86.4399   10.8612 H       1  UNL1        0.1497
     17 C          63.1278   85.0202    8.0171 C.3     1  UNL1        0.0213
     18 C          62.0271   85.5597    8.8816 C.3     1  UNL1        0.0720
     19 C          60.7520   86.0437    8.2573 C.3     1  UNL1        0.0213
     20 C          65.0768   90.7359   14.3931 C.ar    1  UNL1        0.0516
     21 C          66.2388   91.5935   14.7987 C.ar    1  UNL1        0.0147
     22 C          66.6262   92.7764   13.9617 C.ar    1  UNL1        0.0025
     23 C          65.8516   93.1018   12.7190 C.ar    1  UNL1        0.0147
     24 C          64.6897   92.2442   12.3133 C.ar    1  UNL1        0.0025
     25 C          64.3023   91.0613   13.1504 C.ar    1  UNL1        0.0147
     26 C          66.2390   94.2847   11.8819 C.2     1  UNL1        0.0787
     27 N          65.8946   95.6714   12.3383 N.2     1  UNL1       -0.2030
     28 C          66.2820   96.8543   11.5013 C.2     1  UNL1        0.3386
     29 N          67.0139   96.6505   10.2079 N.2     1  UNL1       -0.0120
     30 C          67.3583   95.2638    9.7515 C.2     1  UNL1        0.3628
     31 N          68.0690   94.7560    8.5321 N.2     1  UNL1       -0.0342
     32 C          68.1208   93.2592    8.6155 C.2     1  UNL1        0.2321
     33 C          67.4422   92.8419    9.8864 C.2     1  UNL1        0.0424
     34 C          66.9709   94.0808   10.5886 C.3     1  UNL1        0.1777
@<TRIPOS>BOND
     1    17    18    1
     2    18    19    1
     3    18    13    1
     4    13    14   am
     5    14    15    2
     6    14     7    1
     7     7     8   ar
     8     8     9   ar
     9     9    10   ar
    10    10    11   ar
    11    11     1    1
    12     1     2   am
    13     2     3    2
    14     2     4   am
    15     4    20    1
    16    20    21   ar
    17    21    22   ar
    18    22    23   ar
    19    23    26    1
    20    26    27    2
    21    27    28    1
    22    28    29    2
    23    29    30    1
    24    30    31    2
    25    31    32    1
    26    32    33    2
    27    33    34    1
    28    23    24   ar
    29    24    25   ar
    30    11    12   ar
    31    12     7   ar
    32    25    20   ar
    33    34    26    1
    34    34    30    1
    35    13    16    1
    36     1     5    1
    37     4     6    1
@<TRIPOS>MOLECULE
*****
 34 37 0 0 0
SMALL
GASTEIGER

@<TRIPOS>ATOM
      1 N          63.5858   87.8702   16.1388 N.am    1  UNL1       -0.2681
      2 C          64.0846   88.8348   15.1041 C.2     1  UNL1        0.3082
      3 O          64.3344   88.3670   13.7011 O.2     1  UNL1       -0.2522
      4 N          64.3336   90.2675   15.4725 N.am    1  UNL1       -0.2681
      5 H          63.4218   88.1773   17.0597 H       1  UNL1        0.1564
      6 H          64.1697   90.5746   16.3934 H       1  UNL1        0.1564
      7 C          63.4157   84.5176   14.0219 C.ar    1  UNL1        0.0546
      8 C          62.8386   83.5724   15.0338 C.ar    1  UNL1        0.0046
      9 C          62.5106   84.0599   16.4139 C.ar    1  UNL1        0.0014
     10 C          62.7597   85.4925   16.7822 C.ar    1  UNL1        0.0147
     11 C          63.3367   86.4376   15.7704 C.ar    1  UNL1        0.0517
     12 C          63.6647   85.9502   14.3903 C.ar    1  UNL1        0.0192
     13 N          63.1128   84.6812   11.4467 N.am    1  UNL1       -0.3025
     14 C          63.7437   84.0301   12.6419 C.2     1  UNL1        0.2458
     15 O          64.7025   82.8915   12.4567 O.2     1  UNL1       -0.2701
     16 H          62.4835   85.4285   11.5682 H       1  UNL1        0.1497
     17 C          64.1327   82.8757    9.8814 C.3     1  UNL1        0.0213
     18 C          63.4408   84.1937   10.0666 C.3     1  UNL1        0.0720
     19 C          63.0769   85.0243    8.8717 C.3     1  UNL1        0.0213
     20 C          64.8324   91.2321   14.4379 C.ar    1  UNL1        0.0516
     21 C          64.1876   91.2801   13.0844 C.ar    1  UNL1        0.0147
     22 C          64.6864   92.2447   12.0497 C.ar    1  UNL1        0.0025
     23 C          65.8301   93.1615   12.3685 C.ar    1  UNL1        0.0147
     24 C          66.4750   93.1135   13.7219 C.ar    1  UNL1        0.0025
     25 C          65.9761   92.1488   14.7566 C.ar    1  UNL1        0.0147
     26 C          66.3289   94.1261   11.3338 C.2     1  UNL1        0.0787
     27 N          65.9443   95.5739   11.4109 N.2     1  UNL1       -0.2030
     28 C          66.4431   96.5386   10.3763 C.2     1  UNL1        0.3386
     29 N          67.3266   96.0555    9.2644 N.2     1  UNL1       -0.0120
     30 C          67.7112   94.6077    9.1873 C.2     1  UNL1        0.3628
     31 N          68.5616   93.8456    8.2146 N.2     1  UNL1       -0.0342
     32 C          68.5883   92.4099    8.6483 C.2     1  UNL1        0.2321
     33 C          67.7545   92.2847    9.8888 C.2     1  UNL1        0.0424
     34 C          67.2124   93.6430   10.2220 C.3     1  UNL1        0.1777
@<TRIPOS>BOND
     1    17    18    1
     2    18    19    1
     3    18    13    1
     4    13    14   am
     5    14    15    2
     6    14     7    1
     7     7     8   ar
     8     8     9   ar
     9     9    10   ar
    10    10    11   ar
    11    11     1    1
    12     1     2   am
    13     2     3    2
    14     2     4   am
    15     4    20    1
    16    20    21   ar
    17    21    22   ar
    18    22    23   ar
    19    23    26    1
    20    26    27    2
    21    27    28    1
    22    28    29    2
    23    29    30    1
    24    30    31    2
    25    31    32    1
    26    32    33    2
    27    33    34    1
    28    23    24   ar
    29    24    25   ar
    30    11    12   ar
    31    12     7   ar
    32    25    20   ar
    33    34    26    1
    34    34    30    1
    35    13    16    1
    36     1     5    1
    37     4     6    1
@<TRIPOS>MOLECULE
*****
 34 37 0 0 0
SMALL
GASTEIGER

@<TRIPOS>ATOM
      1 N          58.9272   90.4256    6.1523 N.am    1  UNL1       -0.2681
      2 C          59.9088   91.0385    5.1981 C.2     1  UNL1        0.3082
      3 O          61.3408   90.5923    5.2057 O.2     1  UNL1       -0.2522
      4 N          59.4584   92.0978    4.2362 N.am    1  UNL1       -0.2681
      5 H          57.9873   90.7185    6.1473 H       1  UNL1        0.1564
      6 H          58.5185   92.3907    4.2312 H       1  UNL1        0.1564
      7 C          60.4922   88.6964    9.3634 C.ar    1  UNL1        0.0546
      8 C          60.2781   87.2478    9.0380 C.ar    1  UNL1        0.0046
      9 C          59.6138   86.8585    7.7507 C.ar    1  UNL1        0.0014
     10 C          59.1635   87.9178    6.7888 C.ar    1  UNL1        0.0147
     11 C          59.3775   89.3663    7.1143 C.ar    1  UNL1        0.0517
     12 C          60.0418   89.7557    8.4015 C.ar    1  UNL1        0.0192
     13 N          62.6153   89.4347   10.6662 N.am    1  UNL1       -0.3025
     14 C          61.1565   89.0857   10.6506 C.2     1  UNL1        0.2458
     15 O          60.3622   89.1261   11.9224 O.2     1  UNL1       -0.2701
     16 H          63.1367   89.4083    9.8315 H       1  UNL1        0.1497
     17 C          63.6267   91.2599   12.2141 C.3     1  UNL1        0.0213
     18 C          63.2797   89.8240   11.9535 C.3     1  UNL1        0.0720
     19 C          63.5970   88.7775   12.9801 C.3     1  UNL1        0.0213
     20 C          60.4400   92.7107    3.2820 C.ar    1  UNL1        0.0516
     21 C          61.7686   92.0545    3.0482 C.ar    1  UNL1        0.0147
     22 C          62.7502   92.6675    2.0940 C.ar    1  UNL1        0.0025
     23 C          62.4034   93.9366    1.3734 C.ar    1  UNL1        0.0147
     24 C          61.0749   94.5927    1.6071 C.ar    1  UNL1        0.0025
     25 C          60.0933   93.9797    2.5614 C.ar    1  UNL1        0.0147
     26 C          63.3851   94.5495    0.4191 C.2     1  UNL1        0.0787
     27 N          64.4225   95.5084    0.9233 N.2     1  UNL1       -0.2030
     28 C          65.4041   96.1213   -0.0308 C.2     1  UNL1        0.3386
     29 N          65.3485   95.7754   -1.4894 N.2     1  UNL1       -0.0120
     30 C          64.3111   94.8164   -1.9936 C.2     1  UNL1        0.3628
     31 N          64.0143   94.2893   -3.3662 N.2     1  UNL1       -0.0342
     32 C          62.8492   93.3506   -3.2602 C.2     1  UNL1        0.2321
     33 C          62.4258   93.2975   -1.8222 C.2     1  UNL1        0.0424
     34 C          63.3294   94.2035   -1.0393 C.3     1  UNL1        0.1777
@<TRIPOS>BOND
     1    17    18    1
     2    18    19    1
     3    18    13    1
     4    13    14   am
     5    14    15    2
     6    14     7    1
     7     7     8   ar
     8     8     9   ar
     9     9    10   ar
    10    10    11   ar
    11    11     1    1
    12     1     2   am
    13     2     3    2
    14     2     4   am
    15     4    20    1
    16    20    21   ar
    17    21    22   ar
    18    22    23   ar
    19    23    26    1
    20    26    27    2
    21    27    28    1
    22    28    29    2
    23    29    30    1
    24    30    31    2
    25    31    32    1
    26    32    33    2
    27    33    34    1
    28    23    24   ar
    29    24    25   ar
    30    11    12   ar
    31    12     7   ar
    32    25    20   ar
    33    34    26    1
    34    34    30    1
    35    13    16    1
    36     1     5    1
    37     4     6    1
@<TRIPOS>MOLECULE
*****
 34 37 0 0 0
SMALL
GASTEIGER

@<TRIPOS>ATOM
      1 N          58.9669   90.4296    6.5832 N.am    1  UNL1       -0.2681
      2 C          59.8031   90.8674    5.4176 C.2     1  UNL1        0.3082
      3 O          61.1260   90.2109    5.1548 O.2     1  UNL1       -0.2522
      4 N          59.3166   91.9619    4.5145 N.am    1  UNL1       -0.2681
      5 H          58.0987   90.8605    6.7557 H       1  UNL1        0.1564
      6 H          58.4483   92.3928    4.6869 H       1  UNL1        0.1564
      7 C          60.5778   88.5808    9.7038 C.ar    1  UNL1        0.0546
      8 C          60.4265   87.1462    9.2923 C.ar    1  UNL1        0.0046
      9 C          59.7888   86.8061    7.9779 C.ar    1  UNL1        0.0014
     10 C          59.3023   87.9006    7.0749 C.ar    1  UNL1        0.0147
     11 C          59.4535   89.3351    7.4863 C.ar    1  UNL1        0.0517
     12 C          60.0912   89.6753    8.8007 C.ar    1  UNL1        0.0192
     13 N          62.7100   88.9713   11.1359 N.am    1  UNL1       -0.3025
     14 C          61.2154   88.9208   11.0181 C.2     1  UNL1        0.2458
     15 O          60.3587   89.2105   12.2148 O.2     1  UNL1       -0.2701
     16 H          63.2724   88.7812   10.3505 H       1  UNL1        0.1497
     17 C          63.5926   90.7452   12.8164 C.3     1  UNL1        0.0213
     18 C          63.3478   89.3114   12.4503 C.3     1  UNL1        0.0720
     19 C          63.7407   88.2175   13.3985 C.3     1  UNL1        0.0213
     20 C          60.1528   92.3997    3.3488 C.ar    1  UNL1        0.0516
     21 C          59.5205   93.1424    2.2091 C.ar    1  UNL1        0.0147
     22 C          60.3567   93.5802    1.0434 C.ar    1  UNL1        0.0025
     23 C          61.8253   93.2755    1.0173 C.ar    1  UNL1        0.0147
     24 C          62.4576   92.5329    2.1570 C.ar    1  UNL1        0.0025
     25 C          61.6212   92.0950    3.3227 C.ar    1  UNL1        0.0147
     26 C          62.6615   93.7134   -0.1484 C.2     1  UNL1        0.0787
     27 N          62.3902   93.1600   -1.5160 N.2     1  UNL1       -0.2030
     28 C          63.2264   93.5979   -2.6817 C.2     1  UNL1        0.3386
     29 N          64.3340   94.5892   -2.4799 N.2     1  UNL1       -0.0120
     30 C          64.6053   95.1426   -1.1124 C.2     1  UNL1        0.3628
     31 N          65.6209   96.1260   -0.6110 N.2     1  UNL1       -0.0342
     32 C          65.4123   96.2960    0.8646 C.2     1  UNL1        0.2321
     33 C          64.2678   95.4175    1.2753 C.2     1  UNL1        0.0424
     34 C          63.7691   94.7047    0.0533 C.3     1  UNL1        0.1777
@<TRIPOS>BOND
     1    17    18    1
     2    18    19    1
     3    18    13    1
     4    13    14   am
     5    14    15    2
     6    14     7    1
     7     7     8   ar
     8     8     9   ar
     9     9    10   ar
    10    10    11   ar
    11    11     1    1
    12     1     2   am
    13     2     3    2
    14     2     4   am
    15     4    20    1
    16    20    21   ar
    17    21    22   ar
    18    22    23   ar
    19    23    26    1
    20    26    27    2
    21    27    28    1
    22    28    29    2
    23    29    30    1
    24    30    31    2
    25    31    32    1
    26    32    33    2
    27    33    34    1
    28    23    24   ar
    29    24    25   ar
    30    11    12   ar
    31    12     7   ar
    32    25    20   ar
    33    34    26    1
    34    34    30    1
    35    13    16    1
    36     1     5    1
    37     4     6    1
@<TRIPOS>MOLECULE
*****
 34 37 0 0 0
SMALL
GASTEIGER

@<TRIPOS>ATOM
      1 N          58.9339   88.8004    6.2480 N.am    1  UNL1       -0.2681
      2 C          59.7839   88.4728    7.4396 C.2     1  UNL1        0.3082
      3 O          60.7764   89.4744    7.9511 O.2     1  UNL1       -0.2522
      4 N          59.6414   87.1435    8.1200 N.am    1  UNL1       -0.2681
      5 H          58.2824   88.1430    5.9124 H       1  UNL1        0.1564
      6 H          58.9899   86.4860    7.7843 H       1  UNL1        0.1564
      7 C          60.4863   91.7972    4.1600 C.ar    1  UNL1        0.0546
      8 C          59.3612   92.7882    4.2072 C.ar    1  UNL1        0.0046
      9 C          58.0938   92.4500    4.9347 C.ar    1  UNL1        0.0014
     10 C          57.9514   91.1207    5.6149 C.ar    1  UNL1        0.0147
     11 C          59.0764   90.1297    5.5677 C.ar    1  UNL1        0.0517
     12 C          60.3438   90.4678    4.8403 C.ar    1  UNL1        0.0192
     13 N          61.7530   93.2071    2.3830 N.am    1  UNL1       -0.3025
     14 C          61.7537   92.1354    3.4326 C.2     1  UNL1        0.2458
     15 O          63.0219   91.4020    3.7547 O.2     1  UNL1       -0.2701
     16 H          60.9206   93.6884    2.1716 H       1  UNL1        0.1497
     17 C          63.1837   93.1610    0.2149 C.3     1  UNL1        0.0213
     18 C          63.0204   93.5453    1.6556 C.3     1  UNL1        0.0720
     19 C          64.1245   94.2679    2.3689 C.3     1  UNL1        0.0213
     20 C          60.4914   86.8158    9.3116 C.ar    1  UNL1        0.0516
     21 C          61.5864   85.7973    9.1946 C.ar    1  UNL1        0.0147
     22 C          62.4364   85.4697   10.3862 C.ar    1  UNL1        0.0025
     23 C          62.1915   86.1606   11.6949 C.ar    1  UNL1        0.0147
     24 C          61.0965   87.1791   11.8120 C.ar    1  UNL1        0.0025
     25 C          60.2465   87.5067   10.6203 C.ar    1  UNL1        0.0147
     26 C          63.0415   85.8329   12.8866 C.2     1  UNL1        0.0787
     27 N          63.7556   86.9278   13.6224 N.2     1  UNL1       -0.2030
     28 C          64.6056   86.6002   14.8139 C.2     1  UNL1        0.3386
     29 N          64.7417   85.1776   15.2699 N.2     1  UNL1       -0.0120
     30 C          64.0276   84.0827   14.5342 C.2     1  UNL1        0.3628
     31 N          63.9729   82.5992   14.7488 N.2     1  UNL1       -0.0342
     32 C          63.0891   82.0099   13.6897 C.2     1  UNL1        0.2321
     33 C          62.5975   83.1293   12.8206 C.2     1  UNL1        0.0424
     34 C          63.1776   84.4104   13.3425 C.3     1  UNL1        0.1777
@<TRIPOS>BOND
     1    17    18    1
     2    18    19    1
     3    18    13    1
     4    13    14   am
     5    14    15    2
     6    14     7    1
     7     7     8   ar
     8     8     9   ar
     9     9    10   ar
    10    10    11   ar
    11    11     1    1
    12     1     2   am
    13     2     3    2
    14     2     4   am
    15     4    20    1
    16    20    21   ar
    17    21    22   ar
    18    22    23   ar
    19    23    26    1
    20    26    27    2
    21    27    28    1
    22    28    29    2
    23    29    30    1
    24    30    31    2
    25    31    32    1
    26    32    33    2
    27    33    34    1
    28    23    24   ar
    29    24    25   ar
    30    11    12   ar
    31    12     7   ar
    32    25    20   ar
    33    34    26    1
    34    34    30    1
    35    13    16    1
    36     1     5    1
    37     4     6    1
@<TRIPOS>MOLECULE
*****
 34 37 0 0 0
SMALL
GASTEIGER

@<TRIPOS>ATOM
      1 N          63.5961   87.9159   16.0673 N.am    1  UNL1       -0.2681
      2 C          64.1617   88.7062   14.9249 C.2     1  UNL1        0.3082
      3 O          64.4317   88.0362   13.6103 O.2     1  UNL1       -0.2522
      4 N          64.4574   90.1667   15.0970 N.am    1  UNL1       -0.2681
      5 H          63.4189   88.3557   16.9301 H       1  UNL1        0.1564
      6 H          64.2803   90.6065   15.9598 H       1  UNL1        0.1564
      7 C          63.3007   84.3184   14.4176 C.ar    1  UNL1        0.0546
      8 C          62.7088   83.5344   15.5513 C.ar    1  UNL1        0.0046
      9 C          62.4127   84.2110   16.8570 C.ar    1  UNL1        0.0014
     10 C          62.7085   85.6714   17.0289 C.ar    1  UNL1        0.0147
     11 C          63.3003   86.4553   15.8953 C.ar    1  UNL1        0.0517
     12 C          63.5965   85.7789   14.5897 C.ar    1  UNL1        0.0192
     13 N          63.1627   84.2755   11.8236 N.am    1  UNL1       -0.3025
     14 C          63.5968   83.6419   13.1121 C.2     1  UNL1        0.2458
     15 O          64.3271   82.3318   13.0949 O.2     1  UNL1       -0.2701
     16 H          62.6835   85.1354   11.8348 H       1  UNL1        0.1497
     17 C          63.5535   84.4082    9.2585 C.3     1  UNL1        0.0213
     18 C          63.4589   83.5990   10.5179 C.3     1  UNL1        0.0720
     19 C          63.6603   82.1134   10.4719 C.3     1  UNL1        0.0213
     20 C          65.0231   90.9571   13.9545 C.ar    1  UNL1        0.0516
     21 C          66.3064   91.7139   14.1288 C.ar    1  UNL1        0.0147
     22 C          66.8721   92.5043   12.9863 C.ar    1  UNL1        0.0025
     23 C          66.1544   92.5379   11.6695 C.ar    1  UNL1        0.0147
     24 C          64.8711   91.7811   11.4952 C.ar    1  UNL1        0.0025
     25 C          64.3055   90.9907   12.6378 C.ar    1  UNL1        0.0147
     26 C          66.7201   93.3283   10.5270 C.2     1  UNL1        0.0787
     27 N          67.8020   92.7397    9.6708 N.2     1  UNL1       -0.2030
     28 C          68.3676   93.5300    8.5283 C.2     1  UNL1        0.3386
     29 N          67.8515   94.9091    8.2420 N.2     1  UNL1       -0.0120
     30 C          66.7697   95.4977    9.0983 C.2     1  UNL1        0.3628
     31 N          66.0671   96.8223    9.0582 N.2     1  UNL1       -0.0342
     32 C          65.0671   96.8506   10.1759 C.2     1  UNL1        0.2321
     33 C          65.1517   95.5434   10.9068 C.2     1  UNL1        0.0424
     34 C          66.2040   94.7073   10.2408 C.3     1  UNL1        0.1777
@<TRIPOS>BOND
     1    17    18    1
     2    18    19    1
     3    18    13    1
     4    13    14   am
     5    14    15    2
     6    14     7    1
     7     7     8   ar
     8     8     9   ar
     9     9    10   ar
    10    10    11   ar
    11    11     1    1
    12     1     2   am
    13     2     3    2
    14     2     4   am
    15     4    20    1
    16    20    21   ar
    17    21    22   ar
    18    22    23   ar
    19    23    26    1
    20    26    27    2
    21    27    28    1
    22    28    29    2
    23    29    30    1
    24    30    31    2
    25    31    32    1
    26    32    33    2
    27    33    34    1
    28    23    24   ar
    29    24    25   ar
    30    11    12   ar
    31    12     7   ar
    32    25    20   ar
    33    34    26    1
    34    34    30    1
    35    13    16    1
    36     1     5    1
    37     4     6    1
@<TRIPOS>MOLECULE
*****
 34 37 0 0 0
SMALL
GASTEIGER

@<TRIPOS>ATOM
      1 N          58.6555   91.6189    4.1512 N.am    1  UNL1       -0.2681
      2 C          59.3992   90.8418    5.1966 C.2     1  UNL1        0.3082
      3 O          60.8958   90.7553    5.1437 O.2     1  UNL1       -0.2522
      4 N          58.6464   90.1511    6.2949 N.am    1  UNL1       -0.2681
      5 H          57.6732   91.6756    4.1860 H       1  UNL1        0.1564
      6 H          57.6642   90.2078    6.3297 H       1  UNL1        0.1564
      7 C          59.5222   93.1878    0.6104 C.ar    1  UNL1        0.0546
      8 C          60.9139   93.6909    0.8563 C.ar    1  UNL1        0.0046
      9 C          61.5526   93.5033    2.2004 C.ar    1  UNL1        0.0014
     10 C          60.7998   92.8126    3.2987 C.ar    1  UNL1        0.0147
     11 C          59.4083   92.3096    3.0528 C.ar    1  UNL1        0.0517
     12 C          58.7694   92.4971    1.7088 C.ar    1  UNL1        0.0192
     13 N          57.8043   92.4381   -1.1887 N.am    1  UNL1       -0.3025
     14 C          58.8835   93.3754   -0.7337 C.2     1  UNL1        0.2458
     15 O          59.3238   94.5002   -1.6230 O.2     1  UNL1       -0.2701
     16 H          57.5152   91.6999   -0.6050 H       1  UNL1        0.1497
     17 C          57.6791   91.8662   -3.7199 C.3     1  UNL1        0.0213
     18 C          57.1655   92.6257   -2.5328 C.3     1  UNL1        0.0720
     19 C          56.0130   93.5729   -2.6898 C.3     1  UNL1        0.0213
     20 C          59.3902   89.3740    7.3403 C.ar    1  UNL1        0.0516
     21 C          59.3799   87.8743    7.3090 C.ar    1  UNL1        0.0147
     22 C          60.1236   87.0972    8.3544 C.ar    1  UNL1        0.0025
     23 C          60.8777   87.8198    9.4311 C.ar    1  UNL1        0.0147
     24 C          60.8881   89.3194    9.4625 C.ar    1  UNL1        0.0025
     25 C          60.1443   90.0965    8.4170 C.ar    1  UNL1        0.0147
     26 C          61.6215   87.0426   10.4765 C.2     1  UNL1        0.0787
     27 N          61.5738   85.5434   10.4721 N.2     1  UNL1       -0.2030
     28 C          62.3175   84.7663   11.5174 C.2     1  UNL1        0.3386
     29 N          63.1091   85.4883   12.5673 N.2     1  UNL1       -0.0120
     30 C          63.1568   86.9875   12.5718 C.2     1  UNL1        0.3628
     31 N          63.8475   87.9670   13.4737 N.2     1  UNL1       -0.0342
     32 C          63.5305   89.3496   12.9857 C.2     1  UNL1        0.2321
     33 C          62.6440   89.2245   11.7822 C.2     1  UNL1        0.0424
     34 C          62.4130   87.7647   11.5264 C.3     1  UNL1        0.1777
@<TRIPOS>BOND
     1    17    18    1
     2    18    19    1
     3    18    13    1
     4    13    14   am
     5    14    15    2
     6    14     7    1
     7     7     8   ar
     8     8     9   ar
     9     9    10   ar
    10    10    11   ar
    11    11     1    1
    12     1     2   am
    13     2     3    2
    14     2     4   am
    15     4    20    1
    16    20    21   ar
    17    21    22   ar
    18    22    23   ar
    19    23    26    1
    20    26    27    2
    21    27    28    1
    22    28    29    2
    23    29    30    1
    24    30    31    2
    25    31    32    1
    26    32    33    2
    27    33    34    1
    28    23    24   ar
    29    24    25   ar
    30    11    12   ar
    31    12     7   ar
    32    25    20   ar
    33    34    26    1
    34    34    30    1
    35    13    16    1
    36     1     5    1
    37     4     6    1
@<TRIPOS>MOLECULE
*****
 34 37 0 0 0
SMALL
GASTEIGER

@<TRIPOS>ATOM
      1 N          59.5923   87.8419    8.7197 N.am    1  UNL1       -0.2681
      2 C          59.8617   88.9325    7.7258 C.2     1  UNL1        0.3082
      3 O          61.1507   89.6975    7.7829 O.2     1  UNL1       -0.2522
      4 N          58.8422   89.2582    6.6748 N.am    1  UNL1       -0.2681
      5 H          58.7463   87.3398    8.6822 H       1  UNL1        0.1564
      6 H          57.9962   88.7561    6.6374 H       1  UNL1        0.1564
      7 C          62.2616   88.2916   11.6219 C.ar    1  UNL1        0.0546
      8 C          62.6508   86.8647   11.8726 C.ar    1  UNL1        0.0046
      9 C          62.0205   85.7637   11.0723 C.ar    1  UNL1        0.0014
     10 C          61.0010   86.0894   10.0214 C.ar    1  UNL1        0.0147
     11 C          60.6118   87.5162    9.7707 C.ar    1  UNL1        0.0517
     12 C          61.2420   88.6173   10.5709 C.ar    1  UNL1        0.0192
     13 N          63.5736   89.0799   13.7212 N.am    1  UNL1       -0.3025
     14 C          62.8918   89.3926   12.4222 C.2     1  UNL1        0.2458
     15 O          62.8403   90.8063   11.9235 O.2     1  UNL1       -0.2701
     16 H          63.6074   88.1521   14.0486 H       1  UNL1        0.1497
     17 C          63.6511   90.5398   15.8690 C.3     1  UNL1        0.0213
     18 C          64.2039   90.1810   14.5216 C.3     1  UNL1        0.0720
     19 C          65.3869   90.9231   13.9743 C.3     1  UNL1        0.0213
     20 C          59.1116   90.3488    5.6810 C.ar    1  UNL1        0.0516
     21 C          60.5065   90.5787    5.1794 C.ar    1  UNL1        0.0147
     22 C          60.7759   91.6693    4.1856 C.ar    1  UNL1        0.0025
     23 C          59.6505   92.5302    3.6931 C.ar    1  UNL1        0.0147
     24 C          58.2556   92.3003    4.1946 C.ar    1  UNL1        0.0025
     25 C          57.9862   91.2096    5.1885 C.ar    1  UNL1        0.0147
     26 C          59.9199   93.6208    2.6992 C.2     1  UNL1        0.0787
     27 N          60.1135   95.0322    3.1686 N.2     1  UNL1       -0.2030
     28 C          60.3830   96.1229    2.1748 C.2     1  UNL1        0.3386
     29 N          60.4589   95.8021    0.7114 N.2     1  UNL1       -0.0120
     30 C          60.2653   94.3907    0.2420 C.2     1  UNL1        0.3628
     31 N          60.2840   93.7767   -1.1264 N.2     1  UNL1       -0.0342
     32 C          60.0260   92.3065   -0.9782 C.2     1  UNL1        0.2321
     33 C          59.8479   92.0119    0.4817 C.2     1  UNL1        0.0424
     34 C          59.9958   93.3000    1.2359 C.3     1  UNL1        0.1777
@<TRIPOS>BOND
     1    17    18    1
     2    18    19    1
     3    18    13    1
     4    13    14   am
     5    14    15    2
     6    14     7    1
     7     7     8   ar
     8     8     9   ar
     9     9    10   ar
    10    10    11   ar
    11    11     1    1
    12     1     2   am
    13     2     3    2
    14     2     4   am
    15     4    20    1
    16    20    21   ar
    17    21    22   ar
    18    22    23   ar
    19    23    26    1
    20    26    27    2
    21    27    28    1
    22    28    29    2
    23    29    30    1
    24    30    31    2
    25    31    32    1
    26    32    33    2
    27    33    34    1
    28    23    24   ar
    29    24    25   ar
    30    11    12   ar
    31    12     7   ar
    32    25    20   ar
    33    34    26    1
    34    34    30    1
    35    13    16    1
    36     1     5    1
    37     4     6    1
@<TRIPOS>MOLECULE
*****
 34 37 0 0 0
SMALL
GASTEIGER

@<TRIPOS>ATOM
      1 N          59.7340   87.8805    8.7777 N.am    1  UNL1       -0.2681
      2 C          59.9635   88.9782    7.7815 C.2     1  UNL1        0.3082
      3 O          61.1921   89.8333    7.8775 O.2     1  UNL1       -0.2522
      4 N          58.9643   89.2208    6.6894 N.am    1  UNL1       -0.2681
      5 H          58.9276   87.3193    8.7147 H       1  UNL1        0.1564
      6 H          58.1579   88.6596    6.6264 H       1  UNL1        0.1564
      7 C          62.2080   86.0016   11.2474 C.ar    1  UNL1        0.0546
      8 C          62.7316   87.1528   12.0542 C.ar    1  UNL1        0.0046
      9 C          62.2560   88.5464   11.7687 C.ar    1  UNL1        0.0014
     10 C          61.2568   88.7890   10.6766 C.ar    1  UNL1        0.0147
     11 C          60.7333   87.6379    9.8699 C.ar    1  UNL1        0.0517
     12 C          61.2087   86.2442   10.1552 C.ar    1  UNL1        0.0192
     13 N          62.4498   83.9975   12.8830 N.am    1  UNL1       -0.3025
     14 C          62.6835   84.6080   11.5329 C.2     1  UNL1        0.2458
     15 O          63.3928   83.8247   10.4682 O.2     1  UNL1       -0.2701
     16 H          61.9843   84.5115   13.5818 H       1  UNL1        0.1497
     17 C          64.3636   82.3587   13.5167 C.3     1  UNL1        0.0213
     18 C          62.9254   82.6038   13.1685 C.3     1  UNL1        0.0720
     19 C          61.9626   81.4553   13.1057 C.3     1  UNL1        0.0213
     20 C          59.1937   90.3184    5.6932 C.ar    1  UNL1        0.0516
     21 C          60.5768   90.5870    5.1783 C.ar    1  UNL1        0.0147
     22 C          60.8063   91.6847    4.1822 C.ar    1  UNL1        0.0025
     23 C          59.6526   92.5139    3.7008 C.ar    1  UNL1        0.0147
     24 C          58.2696   92.2454    4.2156 C.ar    1  UNL1        0.0025
     25 C          58.0402   91.1476    5.2118 C.ar    1  UNL1        0.0147
     26 C          59.8821   93.6116    2.7046 C.2     1  UNL1        0.0787
     27 N          60.1265   95.0141    3.1770 N.2     1  UNL1       -0.2030
     28 C          60.3559   96.1117    2.1809 C.2     1  UNL1        0.3386
     29 N          60.3411   95.8070    0.7122 N.2     1  UNL1       -0.0120
     30 C          60.0967   94.4044    0.2398 C.2     1  UNL1        0.3628
     31 N          60.0253   93.8062   -1.1339 N.2     1  UNL1       -0.0342
     32 C          59.7517   92.3387   -0.9867 C.2     1  UNL1        0.2321
     33 C          59.6540   92.0300    0.4780 C.2     1  UNL1        0.0424
     34 C          59.8672   93.3067    1.2360 C.3     1  UNL1        0.1777
@<TRIPOS>BOND
     1    17    18    1
     2    18    19    1
     3    18    13    1
     4    13    14   am
     5    14    15    2
     6    14     7    1
     7     7     8   ar
     8     8     9   ar
     9     9    10   ar
    10    10    11   ar
    11    11     1    1
    12     1     2   am
    13     2     3    2
    14     2     4   am
    15     4    20    1
    16    20    21   ar
    17    21    22   ar
    18    22    23   ar
    19    23    26    1
    20    26    27    2
    21    27    28    1
    22    28    29    2
    23    29    30    1
    24    30    31    2
    25    31    32    1
    26    32    33    2
    27    33    34    1
    28    23    24   ar
    29    24    25   ar
    30    11    12   ar
    31    12     7   ar
    32    25    20   ar
    33    34    26    1
    34    34    30    1
    35    13    16    1
    36     1     5    1
    37     4     6    1
