@<TRIPOS>MOLECULE
*****
 43 47 0 0 0
SMALL
GASTEIGER

@<TRIPOS>ATOM
      1 C          63.0763   91.1671   11.2632 C.3     1  UNL1        0.1443
      2 O          63.2773   91.5811    9.8355 O.3     1  UNL1       -0.3813
      3 H          62.5012   91.3259    9.3126 H       1  UNL1        0.2105
      4 C          64.1397   91.4492   12.2827 C.3     1  UNL1        0.1041
      5 C          63.8230   90.2788   14.5805 C.2     1  UNL1        0.2497
      6 O          64.2184   88.9681   13.9674 O.2     1  UNL1       -0.2725
      7 N          63.7837   91.5193   13.7381 N.am    1  UNL1       -0.3012
      8 H          63.5242   92.3796   14.1405 H       1  UNL1        0.1495
      9 C          63.4670   90.3490   16.0359 C.3     1  UNL1        0.1909
     10 C          63.1076   89.0977   16.7812 C.3     1  UNL1        0.0420
     11 C          64.7705   92.3442   17.0702 C.3     1  UNL1        0.1747
     12 O          63.4703   91.6702   16.7460 O.3     1  UNL1       -0.3444
     13 C          65.5592   91.6613   11.8468 C.3     1  UNL1        0.0485
     14 C          65.9903   92.9979   11.3199 C.ar    1  UNL1       -0.0172
     15 C          65.9936   94.1949   12.2239 C.ar    1  UNL1       -0.0009
     16 C          66.4246   95.5315   11.6970 C.ar    1  UNL1        0.0399
     17 C          66.8524   95.6712   10.2661 C.ar    1  UNL1        0.1764
     18 C          66.8492   94.4742    9.3621 C.ar    1  UNL1        0.1761
     19 C          66.4181   93.1376    9.8889 C.ar    1  UNL1        0.0360
     20 O          67.3197   94.9149    8.0077 O.3     1  UNL1       -0.4346
     21 C          67.6139   96.3843    8.0747 C.3     1  UNL1        0.4294
     22 O          67.3250   96.8516    9.4705 O.3     1  UNL1       -0.4346
     23 C          61.8118   90.4709   11.6713 C.3     1  UNL1        0.1001
     24 N          61.8445   89.0218   12.0571 N.3     1  UNL1       -0.2928
     25 H          61.1842   88.9068   12.8260 H       1  UNL1        0.1236
     26 C          61.5149   87.9677   11.0420 C.3     1  UNL1        0.0849
     27 C          60.6662   88.3103    9.8536 C.3     1  UNL1        0.0604
     28 C          60.3366   87.2563    8.8385 C.3     1  UNL1        0.1363
     29 C          59.6591   88.4991    8.3418 C.3     1  UNL1        0.0402
     30 C          59.1363   87.7409    7.1578 C.3     1  UNL1        0.0072
     31 C          59.8138   86.4981    7.6545 C.3     1  UNL1        0.0402
     32 O          60.8556   85.8598    9.0119 O.3     1  UNL1       -0.4676
     33 C          61.7043   85.5171   10.2003 C.ar    1  UNL1        0.2216
     34 N          62.2234   84.1205   10.3736 N.ar    1  UNL1       -0.2107
     35 C          63.0721   83.7779   11.5620 C.ar    1  UNL1        0.0977
     36 C          63.4017   84.8319   12.5771 C.ar    1  UNL1       -0.0031
     37 C          62.8826   86.2285   12.4038 C.ar    1  UNL1       -0.0011
     38 C          62.0339   86.5711   11.2154 C.ar    1  UNL1        0.0449
     39 C          64.2504   84.4893   13.7656 C.3     1  UNL1        0.0279
     40 C          63.9054   85.0404   15.1174 C.3     1  UNL1        0.0041
     41 C          65.0583   85.9953   15.0222 C.3     1  UNL1        0.0003
     42 C          62.7525   84.0855   15.2125 C.3     1  UNL1        0.0003
     43 C          63.5605   85.5915   16.4692 C.3     1  UNL1        0.0003
@<TRIPOS>BOND
     1    11    12    1
     2    12     9    1
     3     9    10    1
     4     9     5    1
     5     5     6    2
     6     5     7   am
     7     7     4    1
     8     4    13    1
     9    13    14    1
    10    14    15   ar
    11    15    16   ar
    12    16    17   ar
    13    17    18   ar
    14    18    19   ar
    15    18    20    1
    16    20    21    1
    17    21    22    1
    18     4     1    1
    19     1     2    1
    20     1    23    1
    21    23    24    1
    22    26    24    1
    23    26    27    1
    24    27    28    1
    25    28    29    1
    26    29    30    1
    27    30    31    1
    28    28    32    1
    29    32    33    1
    30    33    34   ar
    31    34    35   ar
    32    35    36   ar
    33    36    39    1
    34    39    40    1
    35    40    41    1
    36    40    42    1
    37    40    43    1
    38    36    37   ar
    39    37    38   ar
    40    19    14   ar
    41    38    26    1
    42    22    17    1
    43    31    28    1
    44    38    33   ar
    45     7     8    1
    46     2     3    1
    47    24    25    1
@<TRIPOS>MOLECULE
*****
 43 47 0 0 0
SMALL
GASTEIGER

@<TRIPOS>ATOM
      1 C          62.6593   91.0080   11.0989 C.3     1  UNL1        0.1443
      2 O          62.7784   91.2018    9.6162 O.3     1  UNL1       -0.3813
      3 H          62.0445   90.7499    9.1711 H       1  UNL1        0.2105
      4 C          63.6786   91.6123   12.0185 C.3     1  UNL1        0.1041
      5 C          63.7326   90.3771   14.3035 C.2     1  UNL1        0.2497
      6 O          64.2518   89.1442   13.6248 O.2     1  UNL1       -0.2725
      7 N          63.4460   91.6111   13.5004 N.am    1  UNL1       -0.3012
      8 H          63.1053   92.4202   13.9459 H       1  UNL1        0.1495
      9 C          63.5001   90.3758   15.7854 C.3     1  UNL1        0.1909
     10 C          63.2308   89.0854   16.5013 C.3     1  UNL1        0.0420
     11 C          64.8530   92.3059   16.8783 C.3     1  UNL1        0.1747
     12 O          63.5368   91.6650   16.5514 O.3     1  UNL1       -0.3444
     13 C          64.9304   92.2178   11.4563 C.3     1  UNL1        0.0485
     14 C          66.1556   92.3385   12.3133 C.ar    1  UNL1       -0.0172
     15 C          67.4200   91.6354   11.9174 C.ar    1  UNL1       -0.0009
     16 C          68.6452   91.7561   12.7744 C.ar    1  UNL1        0.0399
     17 C          68.6059   92.5799   14.0273 C.ar    1  UNL1        0.1764
     18 C          67.3414   93.2831   14.4232 C.ar    1  UNL1        0.1761
     19 C          66.1163   93.1624   13.5662 C.ar    1  UNL1        0.0360
     20 O          67.6018   94.0191   15.7040 O.3     1  UNL1       -0.4346
     21 C          69.0272   93.7708   16.0997 C.3     1  UNL1        0.4294
     22 O          69.6478   92.8813   15.0634 O.3     1  UNL1       -0.4346
     23 C          61.5207   90.2100   11.6619 C.3     1  UNL1        0.1001
     24 N          61.7315   88.7785   12.0572 N.3     1  UNL1       -0.2928
     25 H          61.1000   88.5921   12.8363 H       1  UNL1        0.1236
     26 C          61.5166   87.6839   11.0542 C.3     1  UNL1        0.0849
     27 C          60.6869   87.9398    9.8311 C.3     1  UNL1        0.0604
     28 C          60.4720   86.8453    8.8282 C.3     1  UNL1        0.1363
     29 C          59.7219   88.0244    8.2829 C.3     1  UNL1        0.0402
     30 C          59.2985   87.2072    7.0983 C.3     1  UNL1        0.0072
     31 C          60.0486   86.0281    7.6437 C.3     1  UNL1        0.0402
     32 O          61.0869   85.4950    9.0483 O.3     1  UNL1       -0.4676
     33 C          61.9167   85.2392   10.2714 C.ar    1  UNL1        0.2216
     34 N          62.5316   83.8888   10.4916 N.ar    1  UNL1       -0.2107
     35 C          63.3614   83.6329   11.7147 C.ar    1  UNL1        0.0977
     36 C          63.5762   84.7275   12.7177 C.ar    1  UNL1       -0.0031
     37 C          62.9613   86.0778   12.4975 C.ar    1  UNL1       -0.0011
     38 C          62.1316   86.3336   11.2744 C.ar    1  UNL1        0.0449
     39 C          64.4060   84.4716   13.9408 C.3     1  UNL1        0.0279
     40 C          63.9780   85.0266   15.2670 C.3     1  UNL1        0.0041
     41 C          62.9344   83.9549   15.3786 C.3     1  UNL1        0.0003
     42 C          65.0216   86.0983   15.1554 C.3     1  UNL1        0.0003
     43 C          63.5499   85.5815   16.5932 C.3     1  UNL1        0.0003
@<TRIPOS>BOND
     1    11    12    1
     2    12     9    1
     3     9    10    1
     4     9     5    1
     5     5     6    2
     6     5     7   am
     7     7     4    1
     8     4    13    1
     9    13    14    1
    10    14    15   ar
    11    15    16   ar
    12    16    17   ar
    13    17    18   ar
    14    18    19   ar
    15    18    20    1
    16    20    21    1
    17    21    22    1
    18     4     1    1
    19     1     2    1
    20     1    23    1
    21    23    24    1
    22    26    24    1
    23    26    27    1
    24    27    28    1
    25    28    29    1
    26    29    30    1
    27    30    31    1
    28    28    32    1
    29    32    33    1
    30    33    34   ar
    31    34    35   ar
    32    35    36   ar
    33    36    39    1
    34    39    40    1
    35    40    41    1
    36    40    42    1
    37    40    43    1
    38    36    37   ar
    39    37    38   ar
    40    19    14   ar
    41    38    26    1
    42    22    17    1
    43    31    28    1
    44    38    33   ar
    45     7     8    1
    46     2     3    1
    47    24    25    1
@<TRIPOS>MOLECULE
*****
 43 47 0 0 0
SMALL
GASTEIGER

@<TRIPOS>ATOM
      1 C          60.8557   89.2265   10.8021 C.3     1  UNL1        0.1443
      2 O          60.2871   88.7030   12.0876 O.3     1  UNL1       -0.3813
      3 H          60.6903   89.1726   12.8345 H       1  UNL1        0.2105
      4 C          60.3932   88.6609    9.4921 C.3     1  UNL1        0.1041
      5 C          59.2852   89.1430    7.1921 C.2     1  UNL1        0.2497
      6 O          58.5968   87.8113    7.2446 O.2     1  UNL1       -0.2725
      7 N          60.1834   89.5678    8.3158 N.am    1  UNL1       -0.3012
      8 H          60.6352   90.4418    8.2814 H       1  UNL1        0.1495
      9 C          59.0754   90.0499    6.0159 C.3     1  UNL1        0.1909
     10 C          60.2556   90.5686    5.2488 C.3     1  UNL1        0.0420
     11 C          57.4598   91.6905    4.8124 C.3     1  UNL1        0.1747
     12 O          57.6856   90.4382    5.6067 O.3     1  UNL1       -0.3444
     13 C          60.1405   87.1884    9.3583 C.3     1  UNL1        0.0485
     14 C          61.2684   86.2150    9.5324 C.ar    1  UNL1       -0.0172
     15 C          62.1114   85.8254    8.3545 C.ar    1  UNL1       -0.0009
     16 C          63.2393   84.8520    8.5286 C.ar    1  UNL1        0.0399
     17 C          63.5242   84.2682    9.8806 C.ar    1  UNL1        0.1764
     18 C          62.6811   84.6577   11.0586 C.ar    1  UNL1        0.1761
     19 C          61.5532   85.6312   10.8845 C.ar    1  UNL1        0.0360
     20 O          63.1963   83.9230   12.2606 O.3     1  UNL1       -0.4346
     21 C          64.3578   83.0794   11.8255 C.3     1  UNL1        0.4294
     22 O          64.5604   83.2927   10.3546 O.3     1  UNL1       -0.4346
     23 C          61.8869   90.3156   10.8266 C.3     1  UNL1        0.1001
     24 N          63.2780   90.0207   11.3038 N.3     1  UNL1       -0.2928
     25 H          63.9161   90.4116   10.6107 H       1  UNL1        0.1236
     26 C          63.7336   90.5209   12.6426 C.3     1  UNL1        0.0849
     27 C          63.2446   89.8589   13.8966 C.3     1  UNL1        0.0604
     28 C          63.7001   90.3590   15.2354 C.3     1  UNL1        0.1363
     29 C          62.7827   89.2122   15.5410 C.3     1  UNL1        0.0402
     30 C          63.0085   89.4227   17.0089 C.3     1  UNL1        0.0072
     31 C          63.9259   90.5696   16.7033 C.3     1  UNL1        0.0402
     32 O          64.6445   91.5212   15.3201 O.3     1  UNL1       -0.4676
     33 C          65.1335   92.1833   14.0661 C.ar    1  UNL1        0.2216
     34 N          66.0780   93.3455   14.1508 N.ar    1  UNL1       -0.2107
     35 C          66.5670   94.0076   12.8968 C.ar    1  UNL1        0.0977
     36 C          66.1115   93.5073   11.5580 C.ar    1  UNL1       -0.0031
     37 C          65.1670   92.3451   11.4733 C.ar    1  UNL1       -0.0011
     38 C          64.6780   91.6831   12.7273 C.ar    1  UNL1        0.0449
     39 C          66.6005   94.1694   10.3040 C.3     1  UNL1        0.0279
     40 C          67.6220   93.4856    9.4442 C.3     1  UNL1        0.0041
     41 C          67.5229   94.5975    8.4423 C.3     1  UNL1        0.0003
     42 C          67.7211   92.3738   10.4463 C.3     1  UNL1        0.0003
     43 C          68.6435   92.8020    8.5845 C.3     1  UNL1        0.0003
@<TRIPOS>BOND
     1    11    12    1
     2    12     9    1
     3     9    10    1
     4     9     5    1
     5     5     6    2
     6     5     7   am
     7     7     4    1
     8     4    13    1
     9    13    14    1
    10    14    15   ar
    11    15    16   ar
    12    16    17   ar
    13    17    18   ar
    14    18    19   ar
    15    18    20    1
    16    20    21    1
    17    21    22    1
    18     4     1    1
    19     1     2    1
    20     1    23    1
    21    23    24    1
    22    26    24    1
    23    26    27    1
    24    27    28    1
    25    28    29    1
    26    29    30    1
    27    30    31    1
    28    28    32    1
    29    32    33    1
    30    33    34   ar
    31    34    35   ar
    32    35    36   ar
    33    36    39    1
    34    39    40    1
    35    40    41    1
    36    40    42    1
    37    40    43    1
    38    36    37   ar
    39    37    38   ar
    40    19    14   ar
    41    38    26    1
    42    22    17    1
    43    31    28    1
    44    38    33   ar
    45     7     8    1
    46     2     3    1
    47    24    25    1
@<TRIPOS>MOLECULE
*****
 43 47 0 0 0
SMALL
GASTEIGER

@<TRIPOS>ATOM
      1 C          60.8491   89.3214   10.8235 C.3     1  UNL1        0.1443
      2 O          60.3730   88.7439   12.1234 O.3     1  UNL1       -0.3813
      3 H          60.7656   89.2382   12.8599 H       1  UNL1        0.2105
      4 C          60.3837   88.7313    9.5254 C.3     1  UNL1        0.1041
      5 C          59.3003   89.1733    7.2057 C.2     1  UNL1        0.2497
      6 O          58.5904   87.8543    7.2859 O.2     1  UNL1       -0.2725
      7 N          60.1969   89.6118    8.3254 N.am    1  UNL1       -0.3012
      8 H          60.6629   90.4774    8.2727 H       1  UNL1        0.1495
      9 C          59.1135   90.0538    6.0058 C.3     1  UNL1        0.1909
     10 C          60.3071   90.5309    5.2326 C.3     1  UNL1        0.0420
     11 C          57.5337   91.6997    4.7629 C.3     1  UNL1        0.1747
     12 O          57.7333   90.4571    5.5790 O.3     1  UNL1       -0.3444
     13 C          60.1051   87.2607    9.4272 C.3     1  UNL1        0.0485
     14 C          61.2314   86.2754    9.5303 C.ar    1  UNL1       -0.0172
     15 C          62.0231   85.9109    8.3095 C.ar    1  UNL1       -0.0009
     16 C          63.1494   84.9256    8.4126 C.ar    1  UNL1        0.0399
     17 C          63.4841   84.3049    9.7365 C.ar    1  UNL1        0.1764
     18 C          62.6924   84.6694   10.9573 C.ar    1  UNL1        0.1761
     19 C          61.5660   85.6547   10.8543 C.ar    1  UNL1        0.0360
     20 O          63.2499   83.9002   12.1181 O.3     1  UNL1       -0.4346
     21 C          64.3862   83.0603   11.6147 C.3     1  UNL1        0.4294
     22 O          64.5309   83.3104   10.1428 O.3     1  UNL1       -0.4346
     23 C          61.7907   90.4892   10.8217 C.3     1  UNL1        0.1001
     24 N          63.2651   90.2639   10.9804 N.3     1  UNL1       -0.2928
     25 H          63.6454   90.1322   10.0432 H       1  UNL1        0.1236
     26 C          64.1147   91.3029   11.6504 C.3     1  UNL1        0.0849
     27 C          64.7947   92.3587   10.8301 C.3     1  UNL1        0.0604
     28 C          65.6442   93.3976   11.5000 C.3     1  UNL1        0.1363
     29 C          65.7090   93.7270   10.0380 C.3     1  UNL1        0.0402
     30 C          66.6059   94.8908   10.3398 C.3     1  UNL1        0.0072
     31 C          66.5412   94.5615   11.8019 C.3     1  UNL1        0.0402
     32 O          65.8139   93.3807   12.9902 O.3     1  UNL1       -0.4676
     33 C          65.1339   92.3249   13.8106 C.ar    1  UNL1        0.2216
     34 N          65.3036   92.3081   15.3009 N.ar    1  UNL1       -0.2107
     35 C          64.6236   91.2523   16.1212 C.ar    1  UNL1        0.0977
     36 C          63.7740   90.2133   15.4512 C.ar    1  UNL1       -0.0031
     37 C          63.6044   90.2302   13.9610 C.ar    1  UNL1       -0.0011
     38 C          64.2844   91.2860   13.1407 C.ar    1  UNL1        0.0449
     39 C          63.0941   89.1575   16.2716 C.3     1  UNL1        0.0279
     40 C          63.5163   87.7235   16.1473 C.3     1  UNL1        0.0041
     41 C          64.2653   88.0530   14.8902 C.3     1  UNL1        0.0003
     42 C          62.7673   87.3940   17.4045 C.3     1  UNL1        0.0003
     43 C          63.9385   86.2895   16.0229 C.3     1  UNL1        0.0003
@<TRIPOS>BOND
     1    11    12    1
     2    12     9    1
     3     9    10    1
     4     9     5    1
     5     5     6    2
     6     5     7   am
     7     7     4    1
     8     4    13    1
     9    13    14    1
    10    14    15   ar
    11    15    16   ar
    12    16    17   ar
    13    17    18   ar
    14    18    19   ar
    15    18    20    1
    16    20    21    1
    17    21    22    1
    18     4     1    1
    19     1     2    1
    20     1    23    1
    21    23    24    1
    22    26    24    1
    23    26    27    1
    24    27    28    1
    25    28    29    1
    26    29    30    1
    27    30    31    1
    28    28    32    1
    29    32    33    1
    30    33    34   ar
    31    34    35   ar
    32    35    36   ar
    33    36    39    1
    34    39    40    1
    35    40    41    1
    36    40    42    1
    37    40    43    1
    38    36    37   ar
    39    37    38   ar
    40    19    14   ar
    41    38    26    1
    42    22    17    1
    43    31    28    1
    44    38    33   ar
    45     7     8    1
    46     2     3    1
    47    24    25    1
@<TRIPOS>MOLECULE
*****
 43 47 0 0 0
SMALL
GASTEIGER

@<TRIPOS>ATOM
      1 C          63.4363   91.3903   11.4199 C.3     1  UNL1        0.1443
      2 O          63.8464   92.0448   10.1340 O.3     1  UNL1       -0.3813
      3 H          63.0838   92.0888    9.5361 H       1  UNL1        0.2105
      4 C          64.4399   91.2009   12.5185 C.3     1  UNL1        0.1041
      5 C          63.8930   89.9215   14.7125 C.2     1  UNL1        0.2497
      6 O          63.3340   91.1801   15.3071 O.2     1  UNL1       -0.2725
      7 N          64.4459   89.9319   13.3182 N.am    1  UNL1       -0.3012
      8 H          64.8128   89.1059   12.9280 H       1  UNL1        0.1495
      9 C          63.8991   88.6525   15.5123 C.3     1  UNL1        0.1909
     10 C          64.5366   87.4157   14.9517 C.3     1  UNL1        0.0420
     11 C          62.8307   87.3136   17.4657 C.3     1  UNL1        0.1747
     12 O          63.2677   88.6202   16.8725 O.3     1  UNL1       -0.3444
     13 C          65.4374   92.2805   12.8173 C.3     1  UNL1        0.0485
     14 C          66.1067   93.0151   11.6937 C.ar    1  UNL1       -0.0172
     15 C          67.0403   92.2871   10.7726 C.ar    1  UNL1       -0.0009
     16 C          67.7096   93.0216    9.6491 C.ar    1  UNL1        0.0399
     17 C          67.4454   94.4842    9.4466 C.ar    1  UNL1        0.1764
     18 C          66.5118   95.2123   10.3677 C.ar    1  UNL1        0.1761
     19 C          65.8425   94.4778   11.4913 C.ar    1  UNL1        0.0360
     20 O          66.4458   96.6437    9.9242 O.3     1  UNL1       -0.4346
     21 C          67.3386   96.8003    8.7290 C.3     1  UNL1        0.4294
     22 O          67.9564   95.4657    8.4339 O.3     1  UNL1       -0.4346
     23 C          62.0225   90.9252   11.6072 C.3     1  UNL1        0.1001
     24 N          61.7390   89.4777   11.8798 N.3     1  UNL1       -0.2928
     25 H          60.9752   89.4494   12.5553 H       1  UNL1        0.1236
     26 C          61.3556   88.5636   10.7540 C.3     1  UNL1        0.0849
     27 C          60.5730   89.0949    9.5898 C.3     1  UNL1        0.0604
     28 C          60.1896   88.1808    8.4641 C.3     1  UNL1        0.1363
     29 C          59.6298   89.5198    8.0848 C.3     1  UNL1        0.0402
     30 C          59.0828   88.9322    6.8176 C.3     1  UNL1        0.0072
     31 C          59.6426   87.5932    7.1969 C.3     1  UNL1        0.0402
     32 O          60.5887   86.7354    8.5025 O.3     1  UNL1       -0.4676
     33 C          61.3713   86.2041    9.6666 C.ar    1  UNL1        0.2216
     34 N          61.7705   84.7587    9.7050 N.ar    1  UNL1       -0.2107
     35 C          62.5531   84.2274   10.8691 C.ar    1  UNL1        0.0977
     36 C          62.9365   85.1415   11.9949 C.ar    1  UNL1       -0.0031
     37 C          62.5373   86.5869   11.9566 C.ar    1  UNL1       -0.0011
     38 C          61.7547   87.1182   10.7924 C.ar    1  UNL1        0.0449
     39 C          63.7191   84.6102   13.1591 C.3     1  UNL1        0.0279
     40 C          63.2596   83.3711   13.8688 C.3     1  UNL1        0.0041
     41 C          64.2512   82.5579   13.0907 C.3     1  UNL1        0.0003
     42 C          62.2681   84.1845   14.6469 C.3     1  UNL1        0.0003
     43 C          62.8002   82.1321   14.5785 C.3     1  UNL1        0.0003
@<TRIPOS>BOND
     1    11    12    1
     2    12     9    1
     3     9    10    1
     4     9     5    1
     5     5     6    2
     6     5     7   am
     7     7     4    1
     8     4    13    1
     9    13    14    1
    10    14    15   ar
    11    15    16   ar
    12    16    17   ar
    13    17    18   ar
    14    18    19   ar
    15    18    20    1
    16    20    21    1
    17    21    22    1
    18     4     1    1
    19     1     2    1
    20     1    23    1
    21    23    24    1
    22    26    24    1
    23    26    27    1
    24    27    28    1
    25    28    29    1
    26    29    30    1
    27    30    31    1
    28    28    32    1
    29    32    33    1
    30    33    34   ar
    31    34    35   ar
    32    35    36   ar
    33    36    39    1
    34    39    40    1
    35    40    41    1
    36    40    42    1
    37    40    43    1
    38    36    37   ar
    39    37    38   ar
    40    19    14   ar
    41    38    26    1
    42    22    17    1
    43    31    28    1
    44    38    33   ar
    45     7     8    1
    46     2     3    1
    47    24    25    1
@<TRIPOS>MOLECULE
*****
 43 47 0 0 0
SMALL
GASTEIGER

@<TRIPOS>ATOM
      1 C          63.1209   91.3460   10.9077 C.3     1  UNL1        0.1443
      2 O          63.0653   91.5285    9.4198 O.3     1  UNL1       -0.3813
      3 H          62.2458   91.1391    9.0767 H       1  UNL1        0.2105
      4 C          64.2957   91.8637   11.6834 C.3     1  UNL1        0.1041
      5 C          66.1249   93.3169   10.5466 C.2     1  UNL1        0.2497
      6 O          66.8037   92.0745   10.0506 O.2     1  UNL1       -0.2725
      7 N          64.8710   93.2115   11.3630 N.am    1  UNL1       -0.3012
      8 H          64.4255   94.0268   11.6885 H       1  UNL1        0.1495
      9 C          66.7002   94.6646   10.2262 C.3     1  UNL1        0.1909
     10 C          67.6068   94.8310    9.0428 C.3     1  UNL1        0.0420
     11 C          65.3247   96.8280   10.6476 C.3     1  UNL1        0.1747
     12 O          66.3689   95.8459   11.0892 O.3     1  UNL1       -0.3444
     13 C          64.8952   91.0337   12.7795 C.3     1  UNL1        0.0485
     14 C          65.7399   91.6829   13.8355 C.ar    1  UNL1       -0.0172
     15 C          65.1571   91.9779   15.1857 C.ar    1  UNL1       -0.0009
     16 C          66.0018   92.6272   16.2416 C.ar    1  UNL1        0.0399
     17 C          67.4293   92.9813   15.9473 C.ar    1  UNL1        0.1764
     18 C          68.0123   92.6862   14.5970 C.ar    1  UNL1        0.1761
     19 C          67.1676   92.0370   13.5411 C.ar    1  UNL1        0.0360
     20 O          69.4401   93.1460   14.5980 O.3     1  UNL1       -0.4346
     21 C          69.7396   93.7252   15.9488 C.3     1  UNL1        0.4294
     22 O          68.4969   93.6234   16.7828 O.3     1  UNL1       -0.4346
     23 C          62.0017   90.6458   11.6197 C.3     1  UNL1        0.1001
     24 N          62.1488   89.2064   12.0155 N.3     1  UNL1       -0.2928
     25 H          61.6093   89.0799   12.8718 H       1  UNL1        0.1236
     26 C          61.7230   88.1216   11.0711 C.3     1  UNL1        0.0849
     27 C          60.8786   88.4554    9.8772 C.3     1  UNL1        0.0604
     28 C          60.4527   87.3706    8.9328 C.3     1  UNL1        0.1363
     29 C          59.8586   88.6287    8.3722 C.3     1  UNL1        0.0402
     30 C          59.2585   87.8427    7.2442 C.3     1  UNL1        0.0072
     31 C          59.8526   86.5846    7.8049 C.3     1  UNL1        0.0402
     32 O          60.8713   85.9520    9.1824 O.3     1  UNL1       -0.4676
     33 C          61.7156   85.6182   10.3764 C.ar    1  UNL1        0.2216
     34 N          62.1342   84.1995   10.6260 N.ar    1  UNL1       -0.2107
     35 C          62.9786   83.8657   11.8199 C.ar    1  UNL1        0.0977
     36 C          63.4044   84.9506   12.7643 C.ar    1  UNL1       -0.0031
     37 C          62.9859   86.3691   12.5147 C.ar    1  UNL1       -0.0011
     38 C          62.1415   86.7030   11.3207 C.ar    1  UNL1        0.0449
     39 C          64.2488   84.6167   13.9583 C.3     1  UNL1        0.0279
     40 C          63.9275   85.2160   15.2953 C.3     1  UNL1        0.0041
     41 C          62.8182   84.2223   15.4741 C.3     1  UNL1        0.0003
     42 C          65.0368   86.2098   15.1165 C.3     1  UNL1        0.0003
     43 C          63.6061   85.8153   16.6323 C.3     1  UNL1        0.0003
@<TRIPOS>BOND
     1    11    12    1
     2    12     9    1
     3     9    10    1
     4     9     5    1
     5     5     6    2
     6     5     7   am
     7     7     4    1
     8     4    13    1
     9    13    14    1
    10    14    15   ar
    11    15    16   ar
    12    16    17   ar
    13    17    18   ar
    14    18    19   ar
    15    18    20    1
    16    20    21    1
    17    21    22    1
    18     4     1    1
    19     1     2    1
    20     1    23    1
    21    23    24    1
    22    26    24    1
    23    26    27    1
    24    27    28    1
    25    28    29    1
    26    29    30    1
    27    30    31    1
    28    28    32    1
    29    32    33    1
    30    33    34   ar
    31    34    35   ar
    32    35    36   ar
    33    36    39    1
    34    39    40    1
    35    40    41    1
    36    40    42    1
    37    40    43    1
    38    36    37   ar
    39    37    38   ar
    40    19    14   ar
    41    38    26    1
    42    22    17    1
    43    31    28    1
    44    38    33   ar
    45     7     8    1
    46     2     3    1
    47    24    25    1
@<TRIPOS>MOLECULE
*****
 43 47 0 0 0
SMALL
GASTEIGER

@<TRIPOS>ATOM
      1 C          60.8223   88.4483   11.4402 C.3     1  UNL1        0.1443
      2 O          59.5838   88.4902   12.2854 O.3     1  UNL1       -0.3813
      3 H          59.3290   89.4133   12.4401 H       1  UNL1        0.2105
      4 C          61.4243   87.1290   11.0568 C.3     1  UNL1        0.1041
      5 C          61.6739   86.2402    8.6283 C.2     1  UNL1        0.2497
      6 O          63.0263   86.8820    8.5324 O.2     1  UNL1       -0.2725
      7 N          60.8730   86.3637    9.8905 N.am    1  UNL1       -0.3012
      8 H          59.9853   85.9425    9.9534 H       1  UNL1        0.1495
      9 C          61.1225   85.4749    7.4620 C.3     1  UNL1        0.1909
     10 C          62.0241   84.5928    6.6499 C.3     1  UNL1        0.0420
     11 C          58.8906   86.8031    7.5261 C.3     1  UNL1        0.1747
     12 O          59.6697   85.5915    7.1077 O.3     1  UNL1       -0.3444
     13 C          62.5777   86.5751   11.8396 C.3     1  UNL1        0.0485
     14 C          62.7536   85.0909   11.9673 C.ar    1  UNL1       -0.0172
     15 C          63.2622   84.2930   10.8035 C.ar    1  UNL1       -0.0009
     16 C          63.4381   82.8089   10.9313 C.ar    1  UNL1        0.0399
     17 C          63.1053   82.1226   12.2229 C.ar    1  UNL1        0.1764
     18 C          62.5966   82.9205   13.3868 C.ar    1  UNL1        0.1761
     19 C          62.4207   84.4047   13.2590 C.ar    1  UNL1        0.0360
     20 O          62.3533   81.9753   14.5258 O.3     1  UNL1       -0.4346
     21 C          62.7115   80.5933   14.0659 C.3     1  UNL1        0.4294
     22 O          63.1763   80.6843   12.6426 O.3     1  UNL1       -0.4346
     23 C          61.4589   89.7257   10.9786 C.3     1  UNL1        0.1001
     24 N          62.9397   89.9190   11.1183 N.3     1  UNL1       -0.2928
     25 H          63.2254   90.5540   10.3730 H       1  UNL1        0.1236
     26 C          63.5076   90.4659   12.3945 C.3     1  UNL1        0.0849
     27 C          63.1015   89.8726   13.7110 C.3     1  UNL1        0.0604
     28 C          63.6693   90.4194   14.9871 C.3     1  UNL1        0.1363
     29 C          62.7527   89.3112   15.4135 C.3     1  UNL1        0.0402
     30 C          63.0950   89.5804   16.8490 C.3     1  UNL1        0.0072
     31 C          64.0116   90.6886   16.4226 C.3     1  UNL1        0.0402
     32 O          64.6433   91.5595   14.9468 O.3     1  UNL1       -0.4676
     33 C          65.0494   92.1527   13.6303 C.ar    1  UNL1        0.2216
     34 N          66.0234   93.2928   13.5900 N.ar    1  UNL1       -0.2107
     35 C          66.4295   93.8861   12.2735 C.ar    1  UNL1        0.0977
     36 C          65.8616   93.3392   10.9973 C.ar    1  UNL1       -0.0031
     37 C          64.8877   92.1992   11.0377 C.ar    1  UNL1       -0.0011
     38 C          64.4816   91.6059   12.3541 C.ar    1  UNL1        0.0449
     39 C          66.2678   93.9325    9.6808 C.3     1  UNL1        0.0279
     40 C          66.6846   95.3713    9.6033 C.3     1  UNL1        0.0041
     41 C          68.0049   94.9576    9.0239 C.3     1  UNL1        0.0003
     42 C          65.3643   95.7851   10.1827 C.3     1  UNL1        0.0003
     43 C          67.1016   96.8101    9.5257 C.3     1  UNL1        0.0003
@<TRIPOS>BOND
     1    11    12    1
     2    12     9    1
     3     9    10    1
     4     9     5    1
     5     5     6    2
     6     5     7   am
     7     7     4    1
     8     4    13    1
     9    13    14    1
    10    14    15   ar
    11    15    16   ar
    12    16    17   ar
    13    17    18   ar
    14    18    19   ar
    15    18    20    1
    16    20    21    1
    17    21    22    1
    18     4     1    1
    19     1     2    1
    20     1    23    1
    21    23    24    1
    22    26    24    1
    23    26    27    1
    24    27    28    1
    25    28    29    1
    26    29    30    1
    27    30    31    1
    28    28    32    1
    29    32    33    1
    30    33    34   ar
    31    34    35   ar
    32    35    36   ar
    33    36    39    1
    34    39    40    1
    35    40    41    1
    36    40    42    1
    37    40    43    1
    38    36    37   ar
    39    37    38   ar
    40    19    14   ar
    41    38    26    1
    42    22    17    1
    43    31    28    1
    44    38    33   ar
    45     7     8    1
    46     2     3    1
    47    24    25    1
@<TRIPOS>MOLECULE
*****
 43 47 0 0 0
SMALL
GASTEIGER

@<TRIPOS>ATOM
      1 C          60.9078   88.3977   11.5676 C.3     1  UNL1        0.1443
      2 O          59.6084   88.4513   12.3151 O.3     1  UNL1       -0.3813
      3 H          59.3831   89.3752   12.5059 H       1  UNL1        0.2105
      4 C          61.4798   87.0749   11.1516 C.3     1  UNL1        0.1041
      5 C          61.7219   86.2483    8.7005 C.2     1  UNL1        0.2497
      6 O          63.0893   86.8609    8.6290 O.2     1  UNL1       -0.2725
      7 N          60.9172   86.3553    9.9618 N.am    1  UNL1       -0.3012
      8 H          60.0197   85.9532   10.0088 H       1  UNL1        0.1495
      9 C          61.1593   85.5286    7.5107 C.3     1  UNL1        0.1909
     10 C          62.0624   84.7201    6.6271 C.3     1  UNL1        0.0420
     11 C          58.9279   86.8586    7.5559 C.3     1  UNL1        0.1747
     12 O          59.6936   85.6175    7.2045 O.3     1  UNL1       -0.3444
     13 C          62.6143   86.4717   11.9255 C.3     1  UNL1        0.0485
     14 C          62.7559   84.9808   12.0096 C.ar    1  UNL1       -0.0172
     15 C          63.3269   84.2152   10.8530 C.ar    1  UNL1       -0.0009
     16 C          63.4684   82.7243   10.9372 C.ar    1  UNL1        0.0399
     17 C          63.0390   81.9989   12.1779 C.ar    1  UNL1        0.1764
     18 C          62.4680   82.7646   13.3346 C.ar    1  UNL1        0.1761
     19 C          62.3264   84.2555   13.2504 C.ar    1  UNL1        0.0360
     20 O          62.1334   81.7842   14.4195 O.3     1  UNL1       -0.4346
     21 C          62.4977   80.4127   13.9334 C.3     1  UNL1        0.4294
     22 O          63.0574   80.5454   12.5480 O.3     1  UNL1       -0.4346
     23 C          61.6352   89.6670   11.2360 C.3     1  UNL1        0.1001
     24 N          63.1338   89.6777   11.1717 N.3     1  UNL1       -0.2928
     25 H          63.3858   89.7102   10.1838 H       1  UNL1        0.1236
     26 C          63.9060   90.7692   11.8518 C.3     1  UNL1        0.0849
     27 C          64.5584   91.8462   11.0367 C.3     1  UNL1        0.0604
     28 C          65.3305   92.9377   11.7167 C.3     1  UNL1        0.1363
     29 C          65.4277   93.2478   10.2523 C.3     1  UNL1        0.0402
     30 C          66.2532   94.4609   10.5640 C.3     1  UNL1        0.0072
     31 C          66.1560   94.1508   12.0284 C.3     1  UNL1        0.0402
     32 O          65.4502   92.9521   13.2119 O.3     1  UNL1       -0.4676
     33 C          64.7978   91.8751   14.0269 C.ar    1  UNL1        0.2216
     34 N          64.9175   91.8895   15.5221 N.ar    1  UNL1       -0.2107
     35 C          64.2651   90.8125   16.3372 C.ar    1  UNL1        0.0977
     36 C          63.4929   89.7210   15.6571 C.ar    1  UNL1       -0.0031
     37 C          63.3732   89.7066   14.1620 C.ar    1  UNL1       -0.0011
     38 C          64.0257   90.7836   13.3469 C.ar    1  UNL1        0.0449
     39 C          62.8405   88.6440   16.4722 C.3     1  UNL1        0.0279
     40 C          63.3536   87.2361   16.4028 C.3     1  UNL1        0.0041
     41 C          62.5823   86.8940   17.6429 C.3     1  UNL1        0.0003
     42 C          64.1250   87.5784   15.1627 C.3     1  UNL1        0.0003
     43 C          63.8667   85.8284   16.3336 C.3     1  UNL1        0.0003
@<TRIPOS>BOND
     1    11    12    1
     2    12     9    1
     3     9    10    1
     4     9     5    1
     5     5     6    2
     6     5     7   am
     7     7     4    1
     8     4    13    1
     9    13    14    1
    10    14    15   ar
    11    15    16   ar
    12    16    17   ar
    13    17    18   ar
    14    18    19   ar
    15    18    20    1
    16    20    21    1
    17    21    22    1
    18     4     1    1
    19     1     2    1
    20     1    23    1
    21    23    24    1
    22    26    24    1
    23    26    27    1
    24    27    28    1
    25    28    29    1
    26    29    30    1
    27    30    31    1
    28    28    32    1
    29    32    33    1
    30    33    34   ar
    31    34    35   ar
    32    35    36   ar
    33    36    39    1
    34    39    40    1
    35    40    41    1
    36    40    42    1
    37    40    43    1
    38    36    37   ar
    39    37    38   ar
    40    19    14   ar
    41    38    26    1
    42    22    17    1
    43    31    28    1
    44    38    33   ar
    45     7     8    1
    46     2     3    1
    47    24    25    1
@<TRIPOS>MOLECULE
*****
 43 47 0 0 0
SMALL
GASTEIGER

@<TRIPOS>ATOM
      1 C          64.2346   90.2257   13.6935 C.3     1  UNL1        0.1443
      2 O          63.9631   90.1215   15.1650 O.3     1  UNL1       -0.3813
      3 H          63.4431   89.3220   15.3420 H       1  UNL1        0.2105
      4 C          65.0259   91.3815   13.1569 C.3     1  UNL1        0.1041
      5 C          66.3123   92.4193   15.1614 C.2     1  UNL1        0.2497
      6 O          65.0116   92.6764   15.8630 O.2     1  UNL1       -0.2725
      7 N          66.3194   91.7719   13.8084 N.am    1  UNL1       -0.3012
      8 H          67.1730   91.6031   13.3479 H       1  UNL1        0.1495
      9 C          67.6059   92.8096   15.8129 C.3     1  UNL1        0.1909
     10 C          68.5020   91.7553   16.3920 C.3     1  UNL1        0.0420
     11 C          69.4449   94.6273   16.0648 C.3     1  UNL1        0.1747
     12 O          68.0033   94.2541   15.8852 O.3     1  UNL1       -0.3444
     13 C          64.5235   92.1470   11.9688 C.3     1  UNL1        0.0485
     14 C          65.4816   92.9318   11.1224 C.ar    1  UNL1       -0.0172
     15 C          66.6370   92.2411   10.4607 C.ar    1  UNL1       -0.0009
     16 C          67.5951   93.0258    9.6144 C.ar    1  UNL1        0.0399
     17 C          67.3978   94.5012    9.4297 C.ar    1  UNL1        0.1764
     18 C          66.2423   95.1920   10.0915 C.ar    1  UNL1        0.1761
     19 C          65.2842   94.4073   10.9378 C.ar    1  UNL1        0.0360
     20 O          66.3030   96.6465    9.7299 O.3     1  UNL1       -0.4346
     21 C          67.4959   96.8547    8.8447 C.3     1  UNL1        0.4294
     22 O          68.1725   95.5288    8.6592 O.3     1  UNL1       -0.4346
     23 C          63.7149   89.1741   12.7586 C.3     1  UNL1        0.1001
     24 N          62.3062   89.2533   12.2493 N.3     1  UNL1       -0.2928
     25 H          62.1918   90.1818   11.8429 H       1  UNL1        0.1236
     26 C          61.8226   88.2698   11.2251 C.3     1  UNL1        0.0849
     27 C          61.0045   88.7418   10.0598 C.3     1  UNL1        0.0604
     28 C          60.5209   87.7584    9.0356 C.3     1  UNL1        0.1363
     29 C          60.0033   89.0879    8.5720 C.3     1  UNL1        0.0402
     30 C          59.3639   88.4259    7.3875 C.3     1  UNL1        0.0072
     31 C          59.8815   87.0965    7.8510 C.3     1  UNL1        0.0402
     32 O          60.8553   86.3030    9.1767 O.3     1  UNL1       -0.4676
     33 C          61.6734   85.8310   10.3421 C.ar    1  UNL1        0.2216
     34 N          62.0078   84.3756   10.4832 N.ar    1  UNL1       -0.2107
     35 C          62.8258   83.9036   11.6485 C.ar    1  UNL1        0.0977
     36 C          63.3095   84.8870   12.6727 C.ar    1  UNL1       -0.0031
     37 C          62.9751   86.3424   12.5316 C.ar    1  UNL1       -0.0011
     38 C          62.1570   86.8144   11.3662 C.ar    1  UNL1        0.0449
     39 C          64.1275   84.4151   13.8381 C.3     1  UNL1        0.0279
     40 C          63.8933   84.9935   15.2022 C.3     1  UNL1        0.0041
     41 C          62.7262   84.0708   15.3930 C.3     1  UNL1        0.0003
     42 C          65.0605   85.9162   15.0113 C.3     1  UNL1        0.0003
     43 C          63.6591   85.5719   16.5662 C.3     1  UNL1        0.0003
@<TRIPOS>BOND
     1    11    12    1
     2    12     9    1
     3     9    10    1
     4     9     5    1
     5     5     6    2
     6     5     7   am
     7     7     4    1
     8     4    13    1
     9    13    14    1
    10    14    15   ar
    11    15    16   ar
    12    16    17   ar
    13    17    18   ar
    14    18    19   ar
    15    18    20    1
    16    20    21    1
    17    21    22    1
    18     4     1    1
    19     1     2    1
    20     1    23    1
    21    23    24    1
    22    26    24    1
    23    26    27    1
    24    27    28    1
    25    28    29    1
    26    29    30    1
    27    30    31    1
    28    28    32    1
    29    32    33    1
    30    33    34   ar
    31    34    35   ar
    32    35    36   ar
    33    36    39    1
    34    39    40    1
    35    40    41    1
    36    40    42    1
    37    40    43    1
    38    36    37   ar
    39    37    38   ar
    40    19    14   ar
    41    38    26    1
    42    22    17    1
    43    31    28    1
    44    38    33   ar
    45     7     8    1
    46     2     3    1
    47    24    25    1
