@<TRIPOS>MOLECULE
*****
 34 38 0 0 0
SMALL
GASTEIGER

@<TRIPOS>ATOM
      1 C          63.4316   91.0395   11.6286 C.ar    1  UNL1        0.1646
      2 N          63.6275   89.7343   12.3416 N.ar    1  UNL1       -0.2224
      3 C          62.8758   88.6772   11.5883 C.ar    1  UNL1        0.1074
      4 C          62.2154   89.3290   10.4097 C.ar    1  UNL1        0.0588
      5 S          62.5589   90.7888   10.4346 S.2     1  UNL1       -0.0508
      6 C          62.7982   87.2236   11.9501 C.ar    1  UNL1        0.1026
      7 C          62.0564   86.2685   11.0627 C.ar    1  UNL1        0.0224
      8 C          61.9789   84.8147   11.4246 C.ar    1  UNL1        0.0239
      9 C          62.6430   84.3162   12.6737 C.ar    1  UNL1        0.1189
     10 C          63.3848   85.2715   13.5611 C.ar    1  UNL1        0.2416
     11 N          63.4624   86.7251   13.1993 N.ar    1  UNL1       -0.2089
     12 N          62.5654   82.8626   13.0355 N.ar    1  UNL1       -0.2826
     13 C          62.3491   82.3070   14.4119 C.ar    1  UNL1        0.1826
     14 N          62.3405   80.8104   14.3115 N.ar    1  UNL1       -0.2280
     15 C          62.5514   80.4411   12.8730 C.ar    1  UNL1        0.0786
     16 C          62.6126   79.0479   12.3202 C.3     1  UNL1        0.0538
     17 C          62.6904   81.7095   12.0844 C.ar    1  UNL1        0.0963
     18 O          64.0490   84.7730   14.8102 O.3     1  UNL1       -0.4551
     19 C          63.9103   85.5411   16.0912 C.3     1  UNL1        0.2543
     20 N          64.0074   92.3628   12.0377 N.pl3   1  UNL1       -0.2786
     21 H          63.4436   93.1698   12.0256 H       1  UNL1        0.1555
     22 N          66.6115   92.7451   11.5715 N.ar    1  UNL1       -0.2383
     23 N          67.8513   92.7450   12.4157 N.ar    1  UNL1       -0.1729
     24 C          67.4482   92.4563   13.8314 C.ar    1  UNL1        0.0766
     25 C          65.9591   92.2780   13.8621 C.ar    1  UNL1        0.0241
     26 C          65.4421   92.4565   12.4654 C.ar    1  UNL1        0.1275
     27 C          65.5560   91.9894   15.2778 C.3     1  UNL1        0.0267
     28 C          64.1583   91.7439   15.7639 C.3     1  UNL1        0.0048
     29 C          66.7958   91.9893   16.1220 C.3     1  UNL1        0.0101
     30 C          67.9652   92.2779   15.2281 C.3     1  UNL1        0.0372
     31 C          68.7616   92.1544   16.4932 C.3     1  UNL1        0.0060
     32 C          69.3012   92.5406   14.5987 C.3     1  UNL1        0.0060
     33 C          67.8110   93.2698    9.3274 C.3     1  UNL1        0.0285
     34 C          66.5516   92.9906   10.0929 C.3     1  UNL1        0.1289
@<TRIPOS>BOND
     1    33    34    1
     2    34    22    1
     3    22    23   ar
     4    23    24   ar
     5    24    25   ar
     6    25    26   ar
     7    26    20    1
     8    20     1    1
     9     1     2   ar
    10     2     3   ar
    11     3     6    1
    12     6     7   ar
    13     7     8   ar
    14     8     9   ar
    15     9    12    1
    16    12    13   ar
    17    13    14   ar
    18    14    15   ar
    19    15    16    1
    20    15    17   ar
    21     9    10   ar
    22    10    18    1
    23    18    19    1
    24    10    11   ar
    25     3     4   ar
    26     4     5   ar
    27    25    27    1
    28    27    28    1
    29    27    29    1
    30    29    30    1
    31    30    31    1
    32    30    32    1
    33    26    22   ar
    34     5     1   ar
    35    30    24    1
    36    11     6   ar
    37    17    12   ar
    38    20    21    1
@<TRIPOS>MOLECULE
*****
 34 38 0 0 0
SMALL
GASTEIGER

@<TRIPOS>ATOM
      1 C          63.4174   87.1741   14.0608 C.ar    1  UNL1        0.1646
      2 N          63.8086   88.1918   13.0305 N.ar    1  UNL1       -0.2224
      3 C          64.2281   89.4403   13.7482 C.ar    1  UNL1        0.1074
      4 C          64.0963   89.1943   15.2220 C.ar    1  UNL1        0.0588
      5 S          63.5952   87.7938   15.4152 S.2     1  UNL1       -0.0508
      6 C          64.6972   90.7117   13.1050 C.ar    1  UNL1        0.1026
      7 C          64.0474   91.1981   11.8436 C.ar    1  UNL1        0.0224
      8 C          64.5165   92.4695   11.2004 C.ar    1  UNL1        0.0239
      9 C          65.6353   93.2544   11.8186 C.ar    1  UNL1        0.1189
     10 C          66.2850   92.7679   13.0801 C.ar    1  UNL1        0.2416
     11 N          65.8160   91.4966   13.7233 N.ar    1  UNL1       -0.2089
     12 N          66.1043   94.5257   11.1754 N.ar    1  UNL1       -0.2826
     13 C          66.1543   95.8765   11.8258 C.ar    1  UNL1        0.1826
     14 N          66.6866   96.8551   10.8213 N.ar    1  UNL1       -0.2280
     15 C          66.9656   96.1091    9.5502 C.ar    1  UNL1        0.0786
     16 C          67.5090   96.6992    8.2826 C.3     1  UNL1        0.0538
     17 C          66.6057   94.6694    9.7691 C.ar    1  UNL1        0.0963
     18 O          67.4039   93.5528   13.6983 O.3     1  UNL1       -0.4551
     19 C          67.6460   93.4765   15.1767 C.3     1  UNL1        0.2543
     20 N          62.9334   85.7814   13.7850 N.pl3   1  UNL1       -0.2786
     21 H          62.5551   85.2384   14.5139 H       1  UNL1        0.1555
     22 N          63.7856   83.9868   11.9967 N.ar    1  UNL1       -0.2383
     23 N          63.6040   83.7917   10.5205 N.ar    1  UNL1       -0.1729
     24 C          62.7319   84.9004   10.0103 C.ar    1  UNL1        0.0766
     25 C          62.3746   85.7807   11.1710 C.ar    1  UNL1        0.0241
     26 C          63.0258   85.2160   12.3987 C.ar    1  UNL1        0.1275
     27 C          61.5026   86.8894   10.6608 C.3     1  UNL1        0.0267
     28 C          60.9153   87.9985   11.4824 C.3     1  UNL1        0.0048
     29 C          61.3210   86.6943    9.1847 C.3     1  UNL1        0.0101
     30 C          62.0807   85.4651    8.7826 C.3     1  UNL1        0.0372
     31 C          61.5659   85.7868    7.4110 C.3     1  UNL1        0.0060
     32 C          62.7329   84.3031    8.0938 C.3     1  UNL1        0.0060
     33 C          63.9465   81.9113   13.5511 C.3     1  UNL1        0.0285
     34 C          64.5864   83.1070   12.9103 C.3     1  UNL1        0.1289
@<TRIPOS>BOND
     1    33    34    1
     2    34    22    1
     3    22    23   ar
     4    23    24   ar
     5    24    25   ar
     6    25    26   ar
     7    26    20    1
     8    20     1    1
     9     1     2   ar
    10     2     3   ar
    11     3     6    1
    12     6     7   ar
    13     7     8   ar
    14     8     9   ar
    15     9    12    1
    16    12    13   ar
    17    13    14   ar
    18    14    15   ar
    19    15    16    1
    20    15    17   ar
    21     9    10   ar
    22    10    18    1
    23    18    19    1
    24    10    11   ar
    25     3     4   ar
    26     4     5   ar
    27    25    27    1
    28    27    28    1
    29    27    29    1
    30    29    30    1
    31    30    31    1
    32    30    32    1
    33    26    22   ar
    34     5     1   ar
    35    30    24    1
    36    11     6   ar
    37    17    12   ar
    38    20    21    1
@<TRIPOS>MOLECULE
*****
 34 38 0 0 0
SMALL
GASTEIGER

@<TRIPOS>ATOM
      1 C          61.4391   88.0776    9.4907 C.ar    1  UNL1        0.1646
      2 N          62.6311   88.3363   10.3639 N.ar    1  UNL1       -0.2224
      3 C          62.4675   89.6934   10.9815 C.ar    1  UNL1        0.1074
      4 C          61.1744   90.2735   10.4900 C.ar    1  UNL1        0.0588
      5 S          60.5389   89.2749    9.5688 S.2     1  UNL1       -0.0508
      6 C          63.4282   90.3543   11.9249 C.ar    1  UNL1        0.1026
      7 C          63.7246   89.7272   13.2549 C.ar    1  UNL1        0.0224
      8 C          64.6854   90.3882   14.1983 C.ar    1  UNL1        0.0239
      9 C          65.3498   91.6762   13.8118 C.ar    1  UNL1        0.1189
     10 C          65.0535   92.3033   12.4817 C.ar    1  UNL1        0.2416
     11 N          64.0927   91.6424   11.5383 N.ar    1  UNL1       -0.2089
     12 N          66.3106   92.3372   14.7552 N.ar    1  UNL1       -0.2826
     13 C          66.0431   92.6765   16.1917 C.ar    1  UNL1        0.1826
     14 N          67.2748   93.3239   16.7521 N.ar    1  UNL1       -0.2280
     15 C          68.3034   93.3847   15.6619 C.ar    1  UNL1        0.0786
     16 C          69.6853   93.9552   15.7844 C.3     1  UNL1        0.0538
     17 C          67.7075   92.7748   14.4278 C.ar    1  UNL1        0.0963
     18 O          65.7179   93.5914   12.0951 O.3     1  UNL1       -0.4551
     19 C          65.8858   93.9435   10.6467 C.3     1  UNL1        0.2543
     20 N          61.1910   86.8391    8.6816 N.pl3   1  UNL1       -0.2786
     21 H          60.4629   86.8216    8.0192 H       1  UNL1        0.1555
     22 N          62.6391   84.7738    7.7970 N.ar    1  UNL1       -0.2383
     23 N          63.4272   83.6754    8.4468 N.ar    1  UNL1       -0.1729
     24 C          63.3275   83.8502    9.9333 C.ar    1  UNL1        0.0766
     25 C          62.4776   85.0566   10.2021 C.ar    1  UNL1        0.0241
     26 C          62.0522   85.6274    8.8819 C.ar    1  UNL1        0.1275
     27 C          62.3779   85.2313   11.6886 C.3     1  UNL1        0.0267
     28 C          61.6225   86.3144   12.4003 C.3     1  UNL1        0.0048
     29 C          63.1661   84.1330   12.3383 C.3     1  UNL1        0.0101
     30 C          63.7530   83.2794   11.2536 C.3     1  UNL1        0.0372
     31 C          64.3262   82.4958   12.3970 C.3     1  UNL1        0.0060
     32 C          64.4597   82.2620   10.4078 C.3     1  UNL1        0.0060
     33 C          61.5539   84.0865    5.5387 C.3     1  UNL1        0.0285
     34 C          62.4678   84.9820    6.3214 C.3     1  UNL1        0.1289
@<TRIPOS>BOND
     1    33    34    1
     2    34    22    1
     3    22    23   ar
     4    23    24   ar
     5    24    25   ar
     6    25    26   ar
     7    26    20    1
     8    20     1    1
     9     1     2   ar
    10     2     3   ar
    11     3     6    1
    12     6     7   ar
    13     7     8   ar
    14     8     9   ar
    15     9    12    1
    16    12    13   ar
    17    13    14   ar
    18    14    15   ar
    19    15    16    1
    20    15    17   ar
    21     9    10   ar
    22    10    18    1
    23    18    19    1
    24    10    11   ar
    25     3     4   ar
    26     4     5   ar
    27    25    27    1
    28    27    28    1
    29    27    29    1
    30    29    30    1
    31    30    31    1
    32    30    32    1
    33    26    22   ar
    34     5     1   ar
    35    30    24    1
    36    11     6   ar
    37    17    12   ar
    38    20    21    1
@<TRIPOS>MOLECULE
*****
 34 38 0 0 0
SMALL
GASTEIGER

@<TRIPOS>ATOM
      1 C          61.1323   88.1049   11.3240 C.ar    1  UNL1        0.1646
      2 N          62.5184   88.3523   11.8414 N.ar    1  UNL1       -0.2224
      3 C          62.6259   89.8039   12.2034 C.ar    1  UNL1        0.1074
      4 C          61.3063   90.4538   11.9097 C.ar    1  UNL1        0.0588
      5 S          60.3833   89.4038   11.3662 S.2     1  UNL1       -0.0508
      6 C          63.8399   90.4860   12.7611 C.ar    1  UNL1        0.1026
      7 C          64.4387   90.0133   14.0526 C.ar    1  UNL1        0.0224
      8 C          65.6528   90.6954   14.6104 C.ar    1  UNL1        0.0239
      9 C          66.2679   91.8500   13.8767 C.ar    1  UNL1        0.1189
     10 C          65.6690   92.3227   12.5852 C.ar    1  UNL1        0.2416
     11 N          64.4550   91.6406   12.0274 N.ar    1  UNL1       -0.2089
     12 N          67.4818   92.5320   14.4345 N.ar    1  UNL1       -0.2826
     13 C          68.9070   92.2194   14.0859 C.ar    1  UNL1        0.1826
     14 N          69.7898   93.1406   14.8747 N.ar    1  UNL1       -0.2280
     15 C          68.9102   94.0224   15.7107 C.ar    1  UNL1        0.0786
     16 C          69.3754   95.0926   16.6534 C.3     1  UNL1        0.0538
     17 C          67.4838   93.6463   15.4386 C.ar    1  UNL1        0.0963
     18 O          66.2841   93.4773   11.8514 O.3     1  UNL1       -0.4551
     19 C          66.8056   93.2883   10.4577 C.3     1  UNL1        0.2543
     20 N          60.5906   86.7897   10.8479 N.pl3   1  UNL1       -0.2786
     21 H          59.6183   86.6370   10.8253 H       1  UNL1        0.1555
     22 N          61.8226   85.3180    8.9875 N.ar    1  UNL1       -0.2383
     23 N          62.8156   84.1939    9.0104 N.ar    1  UNL1       -0.1729
     24 C          63.1369   83.8884   10.4434 C.ar    1  UNL1        0.0766
     25 C          62.3426   84.8236   11.3061 C.ar    1  UNL1        0.0241
     26 C          61.5303   85.7071   10.4063 C.ar    1  UNL1        0.1275
     27 C          62.6639   84.5180   12.7391 C.3     1  UNL1        0.0267
     28 C          62.0926   85.2143   13.9386 C.3     1  UNL1        0.0048
     29 C          63.6569   83.3941   12.7619 C.3     1  UNL1        0.0101
     30 C          63.9492   83.0049   11.3432 C.3     1  UNL1        0.0372
     31 C          64.8626   81.9959   11.9738 C.3     1  UNL1        0.0060
     32 C          64.4325   82.4048   10.0562 C.3     1  UNL1        0.0060
     33 C          59.7582   86.2452    7.7114 C.3     1  UNL1        0.0285
     34 C          61.2266   85.9431    7.7611 C.3     1  UNL1        0.1289
@<TRIPOS>BOND
     1    33    34    1
     2    34    22    1
     3    22    23   ar
     4    23    24   ar
     5    24    25   ar
     6    25    26   ar
     7    26    20    1
     8    20     1    1
     9     1     2   ar
    10     2     3   ar
    11     3     6    1
    12     6     7   ar
    13     7     8   ar
    14     8     9   ar
    15     9    12    1
    16    12    13   ar
    17    13    14   ar
    18    14    15   ar
    19    15    16    1
    20    15    17   ar
    21     9    10   ar
    22    10    18    1
    23    18    19    1
    24    10    11   ar
    25     3     4   ar
    26     4     5   ar
    27    25    27    1
    28    27    28    1
    29    27    29    1
    30    29    30    1
    31    30    31    1
    32    30    32    1
    33    26    22   ar
    34     5     1   ar
    35    30    24    1
    36    11     6   ar
    37    17    12   ar
    38    20    21    1
@<TRIPOS>MOLECULE
*****
 34 38 0 0 0
SMALL
GASTEIGER

@<TRIPOS>ATOM
      1 C          64.6069   90.7273   15.1845 C.ar    1  UNL1        0.1646
      2 N          64.7365   89.4998   14.3322 N.ar    1  UNL1       -0.2224
      3 C          63.9059   88.4154   14.9520 C.ar    1  UNL1        0.1074
      4 C          63.2630   88.9727   16.1873 C.ar    1  UNL1        0.0588
      5 S          63.6963   90.4015   16.3310 S.2     1  UNL1       -0.0508
      6 C          63.7462   87.0189   14.4283 C.ar    1  UNL1        0.1026
      7 C          64.1946   85.8515   15.2567 C.ar    1  UNL1        0.0224
      8 C          64.0349   84.4548   14.7330 C.ar    1  UNL1        0.0239
      9 C          63.4269   84.2257   13.3811 C.ar    1  UNL1        0.1189
     10 C          62.9785   85.3932   12.5527 C.ar    1  UNL1        0.2416
     11 N          63.1382   86.7897   13.0764 N.ar    1  UNL1       -0.2089
     12 N          63.2672   82.8292   12.8575 N.ar    1  UNL1       -0.2826
     13 C          63.0568   81.5959   13.6851 C.ar    1  UNL1        0.1826
     14 N          62.9495   80.4253   12.7535 N.ar    1  UNL1       -0.2280
     15 C          63.0935   80.9350   11.3500 C.ar    1  UNL1        0.0786
     16 C          63.0490   80.1047   10.1015 C.3     1  UNL1        0.0538
     17 C          63.2899   82.4207   11.4144 C.ar    1  UNL1        0.0963
     18 O          62.3705   85.1641   11.2008 O.3     1  UNL1       -0.4551
     19 C          61.4009   86.1595   10.6360 C.3     1  UNL1        0.2543
     20 N          65.2714   92.0486   14.9341 N.pl3   1  UNL1       -0.2786
     21 H          64.9627   92.8530   15.4106 H       1  UNL1        0.1555
     22 N          67.8646   92.2009   14.3041 N.ar    1  UNL1       -0.2383
     23 N          68.6416   92.2920   13.0243 N.ar    1  UNL1       -0.1729
     24 C          67.6634   92.2917   11.8871 C.ar    1  UNL1        0.0766
     25 C          66.2818   92.2005   12.4641 C.ar    1  UNL1        0.0241
     26 C          66.4062   92.1444   13.9579 C.ar    1  UNL1        0.1275
     27 C          65.3036   92.2003   11.3270 C.3     1  UNL1        0.0267
     28 C          63.8106   92.1227   11.4484 C.3     1  UNL1        0.0048
     29 C          66.0806   92.2913   10.0472 C.3     1  UNL1        0.0101
     30 C          67.5390   92.3478   10.3933 C.3     1  UNL1        0.0372
     31 C          67.7278   92.4189    8.9070 C.3     1  UNL1        0.0060
     32 C          69.0369   92.4192   10.4287 C.3     1  UNL1        0.0060
     33 C          69.0939   93.3988   16.2544 C.3     1  UNL1        0.0285
     34 C          68.4443   92.1716   15.6873 C.3     1  UNL1        0.1289
@<TRIPOS>BOND
     1    33    34    1
     2    34    22    1
     3    22    23   ar
     4    23    24   ar
     5    24    25   ar
     6    25    26   ar
     7    26    20    1
     8    20     1    1
     9     1     2   ar
    10     2     3   ar
    11     3     6    1
    12     6     7   ar
    13     7     8   ar
    14     8     9   ar
    15     9    12    1
    16    12    13   ar
    17    13    14   ar
    18    14    15   ar
    19    15    16    1
    20    15    17   ar
    21     9    10   ar
    22    10    18    1
    23    18    19    1
    24    10    11   ar
    25     3     4   ar
    26     4     5   ar
    27    25    27    1
    28    27    28    1
    29    27    29    1
    30    29    30    1
    31    30    31    1
    32    30    32    1
    33    26    22   ar
    34     5     1   ar
    35    30    24    1
    36    11     6   ar
    37    17    12   ar
    38    20    21    1
@<TRIPOS>MOLECULE
*****
 34 38 0 0 0
SMALL
GASTEIGER

@<TRIPOS>ATOM
      1 C          63.4127   89.1692   16.3340 C.ar    1  UNL1        0.1646
      2 N          63.4622   88.1655   15.2203 N.ar    1  UNL1       -0.2224
      3 C          63.1193   86.8217   15.7917 C.ar    1  UNL1        0.1074
      4 C          62.8578   86.9948   17.2586 C.ar    1  UNL1        0.0588
      5 S          63.0392   88.4455   17.5937 S.2     1  UNL1       -0.0508
      6 C          63.0500   85.5314   15.0300 C.ar    1  UNL1        0.1026
      7 C          62.8320   84.2398   15.7609 C.ar    1  UNL1        0.0224
      8 C          62.7628   82.9494   14.9991 C.ar    1  UNL1        0.0239
      9 C          62.9114   82.9506   13.5065 C.ar    1  UNL1        0.1189
     10 C          63.1294   84.2423   12.7756 C.ar    1  UNL1        0.2416
     11 N          63.1987   85.5327   13.5374 N.ar    1  UNL1       -0.2089
     12 N          62.8421   81.6603   12.7448 N.ar    1  UNL1       -0.2826
     13 C          62.5549   80.3076   13.3262 C.ar    1  UNL1        0.1826
     14 N          62.5832   79.3074   12.2087 N.ar    1  UNL1       -0.2280
     15 C          62.8878   80.0420   10.9367 C.ar    1  UNL1        0.0786
     16 C          63.0108   79.4297    9.5729 C.3     1  UNL1        0.0538
     17 C          63.0478   81.4961   11.2681 C.ar    1  UNL1        0.0963
     18 O          63.2781   84.2436   11.2830 O.3     1  UNL1       -0.4551
     19 C          62.5044   85.2247   10.4531 C.3     1  UNL1        0.2543
     20 N          63.6884   90.6384   16.2098 N.pl3   1  UNL1       -0.2786
     21 H          63.4694   91.2449   16.9537 H       1  UNL1        0.1555
     22 N          65.5646   91.9810   14.8600 N.ar    1  UNL1       -0.2383
     23 N          65.7968   92.3171   13.4167 N.ar    1  UNL1       -0.1729
     24 C          64.6732   91.7273   12.6168 C.ar    1  UNL1        0.0766
     25 C          63.7466   91.0267   13.5658 C.ar    1  UNL1        0.0241
     26 C          64.2976   91.1835   14.9521 C.ar    1  UNL1        0.1275
     27 C          62.6231   90.4368   12.7659 C.3     1  UNL1        0.0267
     28 C          61.4699   89.6492   13.3133 C.3     1  UNL1        0.0048
     29 C          62.8553   90.7730   11.3227 C.3     1  UNL1        0.0101
     30 C          64.1223   91.5705   11.2305 C.3     1  UNL1        0.0372
     31 C          63.8232   91.5809    9.7607 C.3     1  UNL1        0.0060
     32 C          65.3268   92.3702   10.8311 C.3     1  UNL1        0.0060
     33 C          67.9343   92.4088   15.8353 C.3     1  UNL1        0.0285
     34 C          66.4449   92.3735   16.0093 C.3     1  UNL1        0.1289
@<TRIPOS>BOND
     1    33    34    1
     2    34    22    1
     3    22    23   ar
     4    23    24   ar
     5    24    25   ar
     6    25    26   ar
     7    26    20    1
     8    20     1    1
     9     1     2   ar
    10     2     3   ar
    11     3     6    1
    12     6     7   ar
    13     7     8   ar
    14     8     9   ar
    15     9    12    1
    16    12    13   ar
    17    13    14   ar
    18    14    15   ar
    19    15    16    1
    20    15    17   ar
    21     9    10   ar
    22    10    18    1
    23    18    19    1
    24    10    11   ar
    25     3     4   ar
    26     4     5   ar
    27    25    27    1
    28    27    28    1
    29    27    29    1
    30    29    30    1
    31    30    31    1
    32    30    32    1
    33    26    22   ar
    34     5     1   ar
    35    30    24    1
    36    11     6   ar
    37    17    12   ar
    38    20    21    1
@<TRIPOS>MOLECULE
*****
 34 38 0 0 0
SMALL
GASTEIGER

@<TRIPOS>ATOM
      1 C          63.5904   87.3101   14.8590 C.ar    1  UNL1        0.1646
      2 N          64.1299   88.1842   13.7659 N.ar    1  UNL1       -0.2224
      3 C          64.2217   89.5848   14.2950 C.ar    1  UNL1        0.1074
      4 C          63.7390   89.5763   15.7152 C.ar    1  UNL1        0.0588
      5 S          63.3489   88.1705   16.0637 S.2     1  UNL1       -0.0508
      6 C          64.7104   90.7833   13.5370 C.ar    1  UNL1        0.1026
      7 C          64.0460   91.1803   12.2522 C.ar    1  UNL1        0.0224
      8 C          64.5348   92.3790   11.4942 C.ar    1  UNL1        0.0239
      9 C          65.6879   93.1805   12.0210 C.ar    1  UNL1        0.1189
     10 C          66.3524   92.7835   13.3059 C.ar    1  UNL1        0.2416
     11 N          65.8636   91.5849   14.0639 N.ar    1  UNL1       -0.2089
     12 N          66.1766   94.3791   11.2630 N.ar    1  UNL1       -0.2826
     13 C          66.2015   95.7915   11.7678 C.ar    1  UNL1        0.1826
     14 N          66.7665   96.6611   10.6839 N.ar    1  UNL1       -0.2280
     15 C          67.0908   95.7861    9.5095 C.ar    1  UNL1        0.0786
     16 C          67.6769   96.2416    8.2059 C.3     1  UNL1        0.0538
     17 C          66.7262   94.3758    9.8674 C.ar    1  UNL1        0.0963
     18 O          67.5056   93.5851   13.8328 O.3     1  UNL1       -0.4551
     19 C          67.7573   93.6556   15.3099 C.3     1  UNL1        0.2543
     20 N          63.3371   85.8347   14.7641 N.pl3   1  UNL1       -0.2786
     21 H          63.2702   85.2930   15.5834 H       1  UNL1        0.1555
     22 N          62.8833   85.8872   12.1304 N.ar    1  UNL1       -0.2383
     23 N          62.8208   84.8546   11.0442 N.ar    1  UNL1       -0.1729
     24 C          63.0843   83.5139   11.6632 C.ar    1  UNL1        0.0766
     25 C          63.3098   83.7179   13.1321 C.ar    1  UNL1        0.0241
     26 C          63.1856   85.1846   13.4208 C.ar    1  UNL1        0.1275
     27 C          63.5734   82.3773   13.7511 C.3     1  UNL1        0.0267
     28 C          63.8508   82.1152   15.2018 C.3     1  UNL1        0.0048
     29 C          63.5108   81.3448   12.6649 C.3     1  UNL1        0.0101
     30 C          63.2085   82.0472   11.3745 C.3     1  UNL1        0.0372
     31 C          63.2723   80.6671   10.7905 C.3     1  UNL1        0.0060
     32 C          62.9196   82.4612    9.9620 C.3     1  UNL1        0.0060
     33 C          61.6734   87.8698   10.9663 C.3     1  UNL1        0.0285
     34 C          62.6795   87.3631   11.9567 C.3     1  UNL1        0.1289
@<TRIPOS>BOND
     1    33    34    1
     2    34    22    1
     3    22    23   ar
     4    23    24   ar
     5    24    25   ar
     6    25    26   ar
     7    26    20    1
     8    20     1    1
     9     1     2   ar
    10     2     3   ar
    11     3     6    1
    12     6     7   ar
    13     7     8   ar
    14     8     9   ar
    15     9    12    1
    16    12    13   ar
    17    13    14   ar
    18    14    15   ar
    19    15    16    1
    20    15    17   ar
    21     9    10   ar
    22    10    18    1
    23    18    19    1
    24    10    11   ar
    25     3     4   ar
    26     4     5   ar
    27    25    27    1
    28    27    28    1
    29    27    29    1
    30    29    30    1
    31    30    31    1
    32    30    32    1
    33    26    22   ar
    34     5     1   ar
    35    30    24    1
    36    11     6   ar
    37    17    12   ar
    38    20    21    1
@<TRIPOS>MOLECULE
*****
 34 38 0 0 0
SMALL
GASTEIGER

@<TRIPOS>ATOM
      1 C          63.7327   89.1443   15.7093 C.ar    1  UNL1        0.1646
      2 N          63.7911   88.0605   14.6739 N.ar    1  UNL1       -0.2224
      3 C          63.3078   86.7889   15.3060 C.ar    1  UNL1        0.1074
      4 C          62.9508   87.0868   16.7321 C.ar    1  UNL1        0.0588
      5 S          63.2133   88.5424   16.9814 S.2     1  UNL1       -0.0508
      6 C          63.2005   85.4539   14.6306 C.ar    1  UNL1        0.1026
      7 C          63.0921   84.2040   15.4528 C.ar    1  UNL1        0.0224
      8 C          62.9848   82.8689   14.7774 C.ar    1  UNL1        0.0239
      9 C          62.9859   82.7838   13.2799 C.ar    1  UNL1        0.1189
     10 C          63.0943   84.0337   12.4576 C.ar    1  UNL1        0.2416
     11 N          63.2016   85.3688   13.1330 N.ar    1  UNL1       -0.2089
     12 N          62.8785   81.4487   12.6045 N.ar    1  UNL1       -0.2826
     13 C          62.6019   80.1385   13.2803 C.ar    1  UNL1        0.1826
     14 N          62.5814   79.0695   12.2282 N.ar    1  UNL1       -0.2280
     15 C          62.8454   79.7192   10.9022 C.ar    1  UNL1        0.0786
     16 C          62.9136   79.0209    9.5763 C.3     1  UNL1        0.0538
     17 C          63.0290   81.1896   11.1347 C.ar    1  UNL1        0.0963
     18 O          63.0954   83.9486   10.9600 O.3     1  UNL1       -0.4551
     19 C          62.6009   85.1051   10.1427 C.3     1  UNL1        0.2543
     20 N          64.1248   90.5780   15.5080 N.pl3   1  UNL1       -0.2786
     21 H          64.2953   91.1557   16.2867 H       1  UNL1        0.1555
     22 N          63.3894   90.7855   12.9465 N.ar    1  UNL1       -0.2383
     23 N          63.8763   91.5686   11.7634 N.ar    1  UNL1       -0.1729
     24 C          65.0447   92.3986   12.2058 C.ar    1  UNL1        0.0766
     25 C          65.2800   92.1286   13.6624 C.ar    1  UNL1        0.0241
     26 C          64.2570   91.1316   14.1202 C.ar    1  UNL1        0.1275
     27 C          66.4485   92.9586   14.1049 C.3     1  UNL1        0.0267
     28 C          67.0283   92.9986   15.4877 C.3     1  UNL1        0.0048
     29 C          66.9353   93.7416   12.9218 C.3     1  UNL1        0.0101
     30 C          66.0678   93.3955   11.7481 C.3     1  UNL1        0.0372
     31 C          66.9479   94.3624   11.0128 C.3     1  UNL1        0.0060
     32 C          65.3842   93.2516   10.4207 C.3     1  UNL1        0.0060
     33 C          61.4679   89.5661   11.6932 C.3     1  UNL1        0.0285
     34 C          62.2373   89.8250   12.9546 C.3     1  UNL1        0.1289
@<TRIPOS>BOND
     1    33    34    1
     2    34    22    1
     3    22    23   ar
     4    23    24   ar
     5    24    25   ar
     6    25    26   ar
     7    26    20    1
     8    20     1    1
     9     1     2   ar
    10     2     3   ar
    11     3     6    1
    12     6     7   ar
    13     7     8   ar
    14     8     9   ar
    15     9    12    1
    16    12    13   ar
    17    13    14   ar
    18    14    15   ar
    19    15    16    1
    20    15    17   ar
    21     9    10   ar
    22    10    18    1
    23    18    19    1
    24    10    11   ar
    25     3     4   ar
    26     4     5   ar
    27    25    27    1
    28    27    28    1
    29    27    29    1
    30    29    30    1
    31    30    31    1
    32    30    32    1
    33    26    22   ar
    34     5     1   ar
    35    30    24    1
    36    11     6   ar
    37    17    12   ar
    38    20    21    1
