@<TRIPOS>MOLECULE
*****
 28 30 0 0 0
SMALL
GASTEIGER

@<TRIPOS>ATOM
      1 N          65.4926   91.8253   13.4186 N.3     1  UNL1       -0.1594
      2 C          65.2090   92.2611   12.0116 C.3     1  UNL1        0.0955
      3 C          64.1877   91.5302   11.1915 C.3     1  UNL1        0.0208
      4 C          63.4500   90.3634   11.7783 C.3     1  UNL1        0.0209
      5 C          63.7336   89.9276   13.1852 C.3     1  UNL1        0.0208
      6 C          64.7549   90.6585   14.0054 C.3     1  UNL1        0.0955
      7 S          66.5139   92.5562   14.2388 S.O2    1  UNL1        0.0438
      8 O          65.5300   92.6667   15.3656 O.2     1  UNL1       -0.1573
      9 O          67.4978   92.4458   13.1119 O.2     1  UNL1       -0.1573
     10 C          68.3918   92.5353   16.0340 C.3     1  UNL1        0.0289
     11 C          67.5352   93.2871   15.0589 C.3     1  UNL1        0.1692
     12 C          62.4990   89.2087   11.8899 C.3     1  UNL1        0.0897
     13 N          63.0212   87.8323   12.1778 N.am    1  UNL1       -0.3008
     14 C          62.1867   86.6298   11.8497 C.2     1  UNL1        0.2467
     15 O          60.8301   86.8038   11.2337 O.2     1  UNL1       -0.2701
     16 H          63.9115   87.7182   12.5821 H       1  UNL1        0.1497
     17 C          62.7088   85.2534   12.1376 C.ar    1  UNL1        0.0640
     18 C          62.8056   84.7690   13.5540 C.ar    1  UNL1        0.0062
     19 C          63.3278   83.3926   13.8418 C.ar    1  UNL1        0.0116
     20 C          63.7531   82.5006   12.7134 C.ar    1  UNL1        0.0585
     21 CL         64.2752   81.1242   13.0012 Cl      1  UNL1       -0.0822
     22 C          63.6563   82.9849   11.2970 C.ar    1  UNL1        0.0229
     23 C          63.1341   84.3613   11.0091 C.ar    1  UNL1        0.0629
     24 CL         63.0373   84.8458    9.5928 Cl      1  UNL1       -0.0821
     25 C          62.8361   90.3982   10.4100 C.3     1  UNL1        0.0017
     26 C          61.3541   90.2332   10.2485 C.3     1  UNL1        0.0001
     27 C          59.9586   90.4736   10.7433 C.3     1  UNL1        0.0000
     28 C          60.1824   89.7067    9.4739 C.3     1  UNL1        0.0000
@<TRIPOS>BOND
     1    10    11    1
     2    11     7    1
     3     7     8    2
     4     7     9    2
     5     7     1    1
     6     1     2    1
     7     2     3    1
     8     3     4    1
     9     4    12    1
    10    12    13    1
    11    13    14   am
    12    14    15    2
    13    14    17    1
    14    17    18   ar
    15    18    19   ar
    16    19    20   ar
    17    20    21    1
    18    20    22   ar
    19    22    23   ar
    20    23    24    1
    21     4    25    1
    22    25    26    1
    23    26    27    1
    24    27    28    1
    25     4     5    1
    26     5     6    1
    27     6     1    1
    28    23    17   ar
    29    28    26    1
    30    13    16    1
@<TRIPOS>MOLECULE
*****
 28 30 0 0 0
SMALL
GASTEIGER

@<TRIPOS>ATOM
      1 N          63.1121   83.8414   11.9469 N.3     1  UNL1       -0.1594
      2 C          62.9594   83.9625   10.4596 C.3     1  UNL1        0.0955
      3 C          62.6000   85.2841    9.8477 C.3     1  UNL1        0.0208
      4 C          62.3933   86.4844   10.7231 C.3     1  UNL1        0.0209
      5 C          62.5460   86.3633   12.2103 C.3     1  UNL1        0.0208
      6 C          62.9054   85.0418   12.8222 C.3     1  UNL1        0.0955
      7 S          63.4715   82.5199   12.5588 S.O2    1  UNL1        0.0438
      8 O          62.4161   82.7179   13.6062 O.2     1  UNL1       -0.1573
      9 O          64.5268   82.3219   11.5114 O.2     1  UNL1       -0.1573
     10 C          62.7518   80.2218   13.5339 C.3     1  UNL1        0.0289
     11 C          63.8309   81.1984   13.1707 C.3     1  UNL1        0.1692
     12 C          62.0980   87.8974   11.1312 C.3     1  UNL1        0.0897
     13 N          63.0661   88.6453   11.9990 N.am    1  UNL1       -0.3008
     14 C          63.0221   90.1437   12.0530 C.2     1  UNL1        0.2467
     15 O          62.0099   90.8941   11.2392 O.2     1  UNL1       -0.2701
     16 H          63.7305   88.1528   12.5331 H       1  UNL1        0.1497
     17 C          63.9903   90.8917   12.9208 C.ar    1  UNL1        0.0640
     18 C          64.0436   90.6169   14.3945 C.ar    1  UNL1        0.0062
     19 C          65.0118   91.3649   15.2623 C.ar    1  UNL1        0.0116
     20 C          65.9267   92.3876   14.6565 C.ar    1  UNL1        0.0585
     21 CL         66.8949   93.1356   15.5243 Cl      1  UNL1       -0.0822
     22 C          65.8734   92.6624   13.1828 C.ar    1  UNL1        0.0229
     23 C          64.9052   91.9144   12.3150 C.ar    1  UNL1        0.0629
     24 CL         64.8518   92.1891   10.8413 Cl      1  UNL1       -0.0821
     25 C          62.1380   87.0963    9.3775 C.3     1  UNL1        0.0017
     26 C          60.8340   86.8521    8.6778 C.3     1  UNL1        0.0001
     27 C          60.0196   86.0854    7.6782 C.3     1  UNL1        0.0000
     28 C          59.3894   87.1959    8.4654 C.3     1  UNL1        0.0000
@<TRIPOS>BOND
     1    10    11    1
     2    11     7    1
     3     7     8    2
     4     7     9    2
     5     7     1    1
     6     1     2    1
     7     2     3    1
     8     3     4    1
     9     4    12    1
    10    12    13    1
    11    13    14   am
    12    14    15    2
    13    14    17    1
    14    17    18   ar
    15    18    19   ar
    16    19    20   ar
    17    20    21    1
    18    20    22   ar
    19    22    23   ar
    20    23    24    1
    21     4    25    1
    22    25    26    1
    23    26    27    1
    24    27    28    1
    25     4     5    1
    26     5     6    1
    27     6     1    1
    28    23    17   ar
    29    28    26    1
    30    13    16    1
@<TRIPOS>MOLECULE
*****
 28 30 0 0 0
SMALL
GASTEIGER

@<TRIPOS>ATOM
      1 N          65.4085   91.6142   13.9244 N.3     1  UNL1       -0.1594
      2 C          64.9519   92.2732   12.6567 C.3     1  UNL1        0.0955
      3 C          64.0040   91.5590   11.7394 C.3     1  UNL1        0.0208
      4 C          63.5127   90.1858   12.0898 C.3     1  UNL1        0.0209
      5 C          63.9692   89.5268   13.3575 C.3     1  UNL1        0.0208
      6 C          64.9171   90.2410   14.2748 C.3     1  UNL1        0.0955
      7 S          66.3563   92.3284   14.8417 S.O2    1  UNL1        0.0438
      8 O          65.2640   92.4706   15.8598 O.2     1  UNL1       -0.1573
      9 O          67.4487   92.1861   13.8236 O.2     1  UNL1       -0.1573
     10 C          68.6484   92.4483   16.0591 C.3     1  UNL1        0.0289
     11 C          67.3042   93.0426   15.7590 C.3     1  UNL1        0.1692
     12 C          62.7736   88.8845   11.9877 C.3     1  UNL1        0.0897
     13 N          62.6869   88.1726   10.6702 N.am    1  UNL1       -0.3008
     14 C          61.9331   86.8801   10.5642 C.2     1  UNL1        0.2467
     15 O          61.2660   86.2996   11.7758 O.2     1  UNL1       -0.2701
     16 H          63.1248   88.5537    9.8750 H       1  UNL1        0.1497
     17 C          61.8465   86.1683    9.2468 C.ar    1  UNL1        0.0640
     18 C          63.0144   85.3706    8.7470 C.ar    1  UNL1        0.0062
     19 C          62.9277   84.6588    7.4296 C.ar    1  UNL1        0.0116
     20 C          61.6732   84.7446    6.6118 C.ar    1  UNL1        0.0585
     21 CL         61.5864   84.0327    5.2944 Cl      1  UNL1       -0.0822
     22 C          60.5052   85.5422    7.1116 C.ar    1  UNL1        0.0229
     23 C          60.5918   86.2540    8.4290 C.ar    1  UNL1        0.0629
     24 CL         59.4240   87.0517    8.9289 Cl      1  UNL1       -0.0821
     25 C          62.7994   90.3929   10.7865 C.3     1  UNL1        0.0017
     26 C          61.3001   90.3992   10.7449 C.3     1  UNL1        0.0001
     27 C          59.9818   90.5642   11.4412 C.3     1  UNL1        0.0000
     28 C          60.0212   90.2451    9.9762 C.3     1  UNL1        0.0000
@<TRIPOS>BOND
     1    10    11    1
     2    11     7    1
     3     7     8    2
     4     7     9    2
     5     7     1    1
     6     1     2    1
     7     2     3    1
     8     3     4    1
     9     4    12    1
    10    12    13    1
    11    13    14   am
    12    14    15    2
    13    14    17    1
    14    17    18   ar
    15    18    19   ar
    16    19    20   ar
    17    20    21    1
    18    20    22   ar
    19    22    23   ar
    20    23    24    1
    21     4    25    1
    22    25    26    1
    23    26    27    1
    24    27    28    1
    25     4     5    1
    26     5     6    1
    27     6     1    1
    28    23    17   ar
    29    28    26    1
    30    13    16    1
@<TRIPOS>MOLECULE
*****
 28 30 0 0 0
SMALL
GASTEIGER

@<TRIPOS>ATOM
      1 N          63.7559   86.7167   13.7742 N.3     1  UNL1       -0.1594
      2 C          63.0912   87.0093   12.4617 C.3     1  UNL1        0.0955
      3 C          63.0168   88.4198   11.9568 C.3     1  UNL1        0.0208
      4 C          63.6071   89.5376   12.7643 C.3     1  UNL1        0.0209
      5 C          64.2717   89.2449   14.0767 C.3     1  UNL1        0.0208
      6 C          64.3461   87.8345   14.5817 C.3     1  UNL1        0.0955
      7 S          63.8302   85.3062   14.2792 S.O2    1  UNL1        0.0438
      8 O          65.2336   85.5488   14.7502 O.2     1  UNL1       -0.1573
      9 O          62.4269   85.0635   13.8081 O.2     1  UNL1       -0.1573
     10 C          62.7604   82.9543   14.5510 C.3     1  UNL1        0.0289
     11 C          63.9046   83.8957   14.7841 C.3     1  UNL1        0.1692
     12 C          64.0158   90.9244   13.1642 C.3     1  UNL1        0.0897
     13 N          64.4676   91.9032   12.1212 N.am    1  UNL1       -0.3008
     14 C          65.8383   92.5072   12.2032 C.2     1  UNL1        0.2467
     15 O          66.7570   92.1322   13.3281 O.2     1  UNL1       -0.2701
     16 H          63.8646   92.1493   11.3830 H       1  UNL1        0.1497
     17 C          66.2901   93.4860   11.1602 C.ar    1  UNL1        0.0640
     18 C          65.6923   94.8610   11.1131 C.ar    1  UNL1        0.0062
     19 C          66.1442   95.8398   10.0701 C.ar    1  UNL1        0.0116
     20 C          67.1937   95.4437    9.0744 C.ar    1  UNL1        0.0585
     21 CL         67.6455   96.4225    8.0314 Cl      1  UNL1       -0.0822
     22 C          67.7914   94.0687    9.1215 C.ar    1  UNL1        0.0229
     23 C          67.3396   93.0899   10.1644 C.ar    1  UNL1        0.0629
     24 CL         67.9373   91.7149   10.2117 Cl      1  UNL1       -0.0821
     25 C          63.0844   90.3119   11.5906 C.3     1  UNL1        0.0017
     26 C          61.6311   90.2338   11.2278 C.3     1  UNL1        0.0001
     27 C          60.5572   89.9442   10.2214 C.3     1  UNL1        0.0000
     28 C          60.1877   90.3881   11.6057 C.3     1  UNL1        0.0000
@<TRIPOS>BOND
     1    10    11    1
     2    11     7    1
     3     7     8    2
     4     7     9    2
     5     7     1    1
     6     1     2    1
     7     2     3    1
     8     3     4    1
     9     4    12    1
    10    12    13    1
    11    13    14   am
    12    14    15    2
    13    14    17    1
    14    17    18   ar
    15    18    19   ar
    16    19    20   ar
    17    20    21    1
    18    20    22   ar
    19    22    23   ar
    20    23    24    1
    21     4    25    1
    22    25    26    1
    23    26    27    1
    24    27    28    1
    25     4     5    1
    26     5     6    1
    27     6     1    1
    28    23    17   ar
    29    28    26    1
    30    13    16    1
@<TRIPOS>MOLECULE
*****
 28 30 0 0 0
SMALL
GASTEIGER

@<TRIPOS>ATOM
      1 N          62.9625   83.5065   12.0433 N.3     1  UNL1       -0.1594
      2 C          62.9549   83.5794   10.5451 C.3     1  UNL1        0.0955
      3 C          62.6425   84.8762    9.8589 C.3     1  UNL1        0.0208
      4 C          62.3376   86.0999   10.6709 C.3     1  UNL1        0.0209
      5 C          62.3452   86.0270   12.1691 C.3     1  UNL1        0.0208
      6 C          62.6577   84.7302   12.8553 C.3     1  UNL1        0.0955
      7 S          63.2750   82.2097   12.7294 S.O2    1  UNL1        0.0438
      8 O          63.1316   81.4845   11.4243 O.2     1  UNL1       -0.1573
      9 O          63.4184   82.9349   14.0346 O.2     1  UNL1       -0.1573
     10 C          62.4892   79.9323   13.7019 C.3     1  UNL1        0.0289
     11 C          63.5874   80.9130   13.4156 C.3     1  UNL1        0.1692
     12 C          61.9879   87.5204   11.0027 C.3     1  UNL1        0.0897
     13 N          63.0591   88.4729   11.4446 N.am    1  UNL1       -0.3008
     14 C          62.7324   89.5734   12.4102 C.2     1  UNL1        0.2467
     15 O          61.3346   89.7213   12.9337 O.2     1  UNL1       -0.2701
     16 H          63.9766   88.3758   11.1010 H       1  UNL1        0.1497
     17 C          63.8037   90.5258   12.8521 C.ar    1  UNL1        0.0640
     18 C          64.2665   91.6145   11.9297 C.ar    1  UNL1        0.0062
     19 C          65.3377   92.5669   12.3717 C.ar    1  UNL1        0.0116
     20 C          65.9461   92.4308   13.7360 C.ar    1  UNL1        0.0585
     21 CL         67.0173   93.3832   14.1780 Cl      1  UNL1       -0.0822
     22 C          65.4833   91.3422   14.6584 C.ar    1  UNL1        0.0229
     23 C          64.4120   90.3897   14.2164 C.ar    1  UNL1        0.0629
     24 CL         63.9492   89.3011   15.1387 Cl      1  UNL1       -0.0821
     25 C          62.2086   86.6662    9.2879 C.3     1  UNL1        0.0017
     26 C          60.8935   86.5990    8.5696 C.3     1  UNL1        0.0001
     27 C          59.4939   87.1012    8.3722 C.3     1  UNL1        0.0000
     28 C          60.0152   85.9802    7.5228 C.3     1  UNL1        0.0000
@<TRIPOS>BOND
     1    10    11    1
     2    11     7    1
     3     7     8    2
     4     7     9    2
     5     7     1    1
     6     1     2    1
     7     2     3    1
     8     3     4    1
     9     4    12    1
    10    12    13    1
    11    13    14   am
    12    14    15    2
    13    14    17    1
    14    17    18   ar
    15    18    19   ar
    16    19    20   ar
    17    20    21    1
    18    20    22   ar
    19    22    23   ar
    20    23    24    1
    21     4    25    1
    22    25    26    1
    23    26    27    1
    24    27    28    1
    25     4     5    1
    26     5     6    1
    27     6     1    1
    28    23    17   ar
    29    28    26    1
    30    13    16    1
@<TRIPOS>MOLECULE
*****
 28 30 0 0 0
SMALL
GASTEIGER

@<TRIPOS>ATOM
      1 N          63.6481   83.4067   12.0436 N.3     1  UNL1       -0.1594
      2 C          64.4736   83.3435   13.2943 C.3     1  UNL1        0.0955
      3 C          64.5377   84.5287   14.2114 C.3     1  UNL1        0.0208
      4 C          63.7762   85.7772   13.8777 C.3     1  UNL1        0.0209
      5 C          62.9507   85.8405   12.6270 C.3     1  UNL1        0.0208
      6 C          62.8867   84.6552   11.7099 C.3     1  UNL1        0.0955
      7 S          63.5841   82.2214   11.1265 S.O2    1  UNL1        0.0438
      8 O          62.4329   81.6726   11.9162 O.2     1  UNL1       -0.1573
      9 O          64.7352   82.7703   10.3368 O.2     1  UNL1       -0.1573
     10 C          62.8392   79.7770   10.6576 C.3     1  UNL1        0.0289
     11 C          63.5200   81.0362   10.2094 C.3     1  UNL1        0.1692
     12 C          63.2363   87.1720   13.9923 C.3     1  UNL1        0.0897
     13 N          63.8734   88.2886   13.2194 N.am    1  UNL1       -0.3008
     14 C          63.5879   89.7143   13.5882 C.2     1  UNL1        0.2467
     15 O          62.6652   90.0233   14.7298 O.2     1  UNL1       -0.2701
     16 H          64.4790   88.0858   12.4702 H       1  UNL1        0.1497
     17 C          64.2250   90.8309   12.8154 C.ar    1  UNL1        0.0640
     18 C          63.7838   91.1180   11.4107 C.ar    1  UNL1        0.0062
     19 C          64.4210   92.2346   10.6380 C.ar    1  UNL1        0.0116
     20 C          65.4993   93.0641   11.2697 C.ar    1  UNL1        0.0585
     21 CL         66.1364   94.1807   10.4970 Cl      1  UNL1       -0.0822
     22 C          65.9404   92.7771   12.6744 C.ar    1  UNL1        0.0229
     23 C          65.3033   91.6605   13.4472 C.ar    1  UNL1        0.0629
     24 CL         65.7443   91.3733   14.8519 Cl      1  UNL1       -0.0821
     25 C          64.4142   86.1984   15.1683 C.3     1  UNL1        0.0017
     26 C          63.5584   86.5366   16.3528 C.3     1  UNL1        0.0001
     27 C          63.0065   87.5518   17.3093 C.3     1  UNL1        0.0000
     28 C          62.6277   86.1071   17.4480 C.3     1  UNL1        0.0000
@<TRIPOS>BOND
     1    10    11    1
     2    11     7    1
     3     7     8    2
     4     7     9    2
     5     7     1    1
     6     1     2    1
     7     2     3    1
     8     3     4    1
     9     4    12    1
    10    12    13    1
    11    13    14   am
    12    14    15    2
    13    14    17    1
    14    17    18   ar
    15    18    19   ar
    16    19    20   ar
    17    20    21    1
    18    20    22   ar
    19    22    23   ar
    20    23    24    1
    21     4    25    1
    22    25    26    1
    23    26    27    1
    24    27    28    1
    25     4     5    1
    26     5     6    1
    27     6     1    1
    28    23    17   ar
    29    28    26    1
    30    13    16    1
@<TRIPOS>MOLECULE
*****
 28 30 0 0 0
SMALL
GASTEIGER

@<TRIPOS>ATOM
      1 N          63.3112   83.3306   13.1993 N.3     1  UNL1       -0.1594
      2 C          63.8919   83.5487   14.5650 C.3     1  UNL1        0.0955
      3 C          64.1697   84.9413   15.0483 C.3     1  UNL1        0.0208
      4 C          63.8668   86.1158   14.1658 C.3     1  UNL1        0.0209
      5 C          63.2861   85.8977   12.8001 C.3     1  UNL1        0.0208
      6 C          63.0083   84.5051   12.3168 C.3     1  UNL1        0.0955
      7 S          63.0335   81.9380   12.7160 S.O2    1  UNL1        0.0438
      8 O          62.8314   82.4612   11.3248 O.2     1  UNL1       -0.1573
      9 O          63.2355   81.4149   14.1072 O.2     1  UNL1       -0.1573
     10 C          62.2907   79.4955   13.1977 C.3     1  UNL1        0.0289
     11 C          62.7557   80.5455   12.2327 C.3     1  UNL1        0.1692
     12 C          63.7516   87.5376   13.7017 C.3     1  UNL1        0.0897
     13 N          64.6977   88.5767   14.2263 N.am    1  UNL1       -0.3008
     14 C          64.5348   90.0119   13.8217 C.2     1  UNL1        0.2467
     15 O          63.4258   90.4079   12.8925 O.2     1  UNL1       -0.2701
     16 H          65.4255   88.3167   14.8362 H       1  UNL1        0.1497
     17 C          65.4808   91.0510   14.3463 C.ar    1  UNL1        0.0640
     18 C          66.7017   91.4207   13.5570 C.ar    1  UNL1        0.0062
     19 C          67.6476   92.4598   14.0817 C.ar    1  UNL1        0.0116
     20 C          67.3729   93.1293   15.3956 C.ar    1  UNL1        0.0585
     21 CL         68.3189   94.1684   15.9202 Cl      1  UNL1       -0.0822
     22 C          66.1520   92.7596   16.1849 C.ar    1  UNL1        0.0229
     23 C          65.2060   91.7205   15.6602 C.ar    1  UNL1        0.0629
     24 CL         63.9851   91.3508   16.4494 Cl      1  UNL1       -0.0821
     25 C          64.4075   86.8276   15.3704 C.3     1  UNL1        0.0017
     26 C          63.5316   87.0465   16.5682 C.3     1  UNL1        0.0001
     27 C          62.8114   87.9773   17.4982 C.3     1  UNL1        0.0000
     28 C          62.7345   86.4948   17.7130 C.3     1  UNL1        0.0000
@<TRIPOS>BOND
     1    10    11    1
     2    11     7    1
     3     7     8    2
     4     7     9    2
     5     7     1    1
     6     1     2    1
     7     2     3    1
     8     3     4    1
     9     4    12    1
    10    12    13    1
    11    13    14   am
    12    14    15    2
    13    14    17    1
    14    17    18   ar
    15    18    19   ar
    16    19    20   ar
    17    20    21    1
    18    20    22   ar
    19    22    23   ar
    20    23    24    1
    21     4    25    1
    22    25    26    1
    23    26    27    1
    24    27    28    1
    25     4     5    1
    26     5     6    1
    27     6     1    1
    28    23    17   ar
    29    28    26    1
    30    13    16    1
@<TRIPOS>MOLECULE
*****
 28 30 0 0 0
SMALL
GASTEIGER

@<TRIPOS>ATOM
      1 N          63.3744   86.0650   13.3245 N.3     1  UNL1       -0.1594
      2 C          62.7414   86.1730   11.9689 C.3     1  UNL1        0.0955
      3 C          62.5994   87.5140   11.3121 C.3     1  UNL1        0.0208
      4 C          63.0903   88.7471   12.0109 C.3     1  UNL1        0.0209
      5 C          63.7233   88.6392   13.3665 C.3     1  UNL1        0.0208
      6 C          63.8653   87.2981   14.0232 C.3     1  UNL1        0.0955
      7 S          63.5164   84.7239   13.9812 S.O2    1  UNL1        0.0438
      8 O          62.7501   85.2247   15.1695 O.2     1  UNL1       -0.1573
      9 O          64.2827   84.2231   12.7930 O.2     1  UNL1       -0.1573
     10 C          62.6457   82.3080   14.3752 C.3     1  UNL1        0.0289
     11 C          63.6584   83.3829   14.6380 C.3     1  UNL1        0.1692
     12 C          63.3987   90.1921   12.2702 C.3     1  UNL1        0.0897
     13 N          64.5108   90.5656   13.2049 N.am    1  UNL1       -0.3008
     14 C          65.3470   91.7798   12.9282 C.2     1  UNL1        0.2467
     15 O          65.0711   92.6203   11.7169 O.2     1  UNL1       -0.2701
     16 H          64.6919   90.0139   13.9999 H       1  UNL1        0.1497
     17 C          66.4592   92.1533   13.8629 C.ar    1  UNL1        0.0640
     18 C          66.1451   92.6236   15.2523 C.ar    1  UNL1        0.0062
     19 C          67.2573   92.9970   16.1869 C.ar    1  UNL1        0.0116
     20 C          68.6834   92.9003   15.7323 C.ar    1  UNL1        0.0585
     21 CL         69.7956   93.2738   16.6669 Cl      1  UNL1       -0.0822
     22 C          68.9975   92.4301   14.3429 C.ar    1  UNL1        0.0229
     23 C          67.8853   92.0566   13.4082 C.ar    1  UNL1        0.0629
     24 CL         68.1993   91.5863   12.0189 Cl      1  UNL1       -0.0821
     25 C          62.5644   89.3569   10.7453 C.3     1  UNL1        0.0017
     26 C          61.1136   89.7213   10.6348 C.3     1  UNL1        0.0001
     27 C          59.8125   89.6627    9.8908 C.3     1  UNL1        0.0000
     28 C          59.9017   90.4112   11.1876 C.3     1  UNL1        0.0000
@<TRIPOS>BOND
     1    10    11    1
     2    11     7    1
     3     7     8    2
     4     7     9    2
     5     7     1    1
     6     1     2    1
     7     2     3    1
     8     3     4    1
     9     4    12    1
    10    12    13    1
    11    13    14   am
    12    14    15    2
    13    14    17    1
    14    17    18   ar
    15    18    19   ar
    16    19    20   ar
    17    20    21    1
    18    20    22   ar
    19    22    23   ar
    20    23    24    1
    21     4    25    1
    22    25    26    1
    23    26    27    1
    24    27    28    1
    25     4     5    1
    26     5     6    1
    27     6     1    1
    28    23    17   ar
    29    28    26    1
    30    13    16    1
@<TRIPOS>MOLECULE
*****
 28 30 0 0 0
SMALL
GASTEIGER

@<TRIPOS>ATOM
      1 N          63.0949   82.8703   13.8864 N.3     1  UNL1       -0.1594
      2 C          63.7283   83.3089   15.1734 C.3     1  UNL1        0.0955
      3 C          64.1192   84.7442   15.3660 C.3     1  UNL1        0.0208
      4 C          63.8768   85.7409   14.2716 C.3     1  UNL1        0.0209
      5 C          63.2435   85.3023   12.9846 C.3     1  UNL1        0.0208
      6 C          62.8525   83.8670   12.7920 C.3     1  UNL1        0.0955
      7 S          62.7039   81.4350   13.6938 S.O2    1  UNL1        0.0438
      8 O          61.4227   81.6848   14.4328 O.2     1  UNL1       -0.1573
      9 O          63.9851   81.1852   12.9548 O.2     1  UNL1       -0.1573
     10 C          62.6283   79.3032   12.2107 C.3     1  UNL1        0.0289
     11 C          62.3130   79.9997   13.5011 C.3     1  UNL1        0.1692
     12 C          63.8513   87.0475   13.5354 C.3     1  UNL1        0.0897
     13 N          63.0626   87.1780   12.2662 N.am    1  UNL1       -0.3008
     14 C          62.2401   88.4075   12.0173 C.2     1  UNL1        0.2467
     15 O          62.2065   89.5065   13.0376 O.2     1  UNL1       -0.2701
     16 H          63.0847   86.4566   11.5965 H       1  UNL1        0.1497
     17 C          61.4514   88.5379   10.7481 C.ar    1  UNL1        0.0640
     18 C          60.5793   87.4076   10.2875 C.ar    1  UNL1        0.0062
     19 C          59.7906   87.5381    9.0183 C.ar    1  UNL1        0.0116
     20 C          59.8738   88.7987    8.2097 C.ar    1  UNL1        0.0585
     21 CL         59.0851   88.9292    6.9405 Cl      1  UNL1       -0.0822
     22 C          60.7458   89.9290    8.6703 C.ar    1  UNL1        0.0229
     23 C          61.5346   89.7986    9.9395 C.ar    1  UNL1        0.0629
     24 CL         62.4066   90.9288   10.4002 Cl      1  UNL1       -0.0821
     25 C          64.5014   86.6333   15.3030 C.3     1  UNL1        0.0017
     26 C          63.6348   87.3718   16.2795 C.3     1  UNL1        0.0001
     27 C          62.7347   87.3677   17.4793 C.3     1  UNL1        0.0000
     28 C          63.0340   88.6554   16.7709 C.3     1  UNL1        0.0000
@<TRIPOS>BOND
     1    10    11    1
     2    11     7    1
     3     7     8    2
     4     7     9    2
     5     7     1    1
     6     1     2    1
     7     2     3    1
     8     3     4    1
     9     4    12    1
    10    12    13    1
    11    13    14   am
    12    14    15    2
    13    14    17    1
    14    17    18   ar
    15    18    19   ar
    16    19    20   ar
    17    20    21    1
    18    20    22   ar
    19    22    23   ar
    20    23    24    1
    21     4    25    1
    22    25    26    1
    23    26    27    1
    24    27    28    1
    25     4     5    1
    26     5     6    1
    27     6     1    1
    28    23    17   ar
    29    28    26    1
    30    13    16    1
