@<TRIPOS>MOLECULE
*****
 34 38 0 0 0
SMALL
GASTEIGER

@<TRIPOS>ATOM
      1 C          59.7302   89.7668    6.5238 C.2     1  UNL1       -0.0144
      2 C          60.7847   90.3331    5.6196 C.2     1  UNL1        0.0893
      3 C          60.6188   91.2776    4.4661 C.2     1  UNL1        0.3693
      4 N          61.9368   91.5958    3.8246 N.2     1  UNL1        0.1553
      5 O          61.9936   92.5254    2.6487 O.2     1  UNL1       -0.2749
      6 C          60.7323   93.1368    2.1144 C.3     1  UNL1        0.2929
      7 C          59.4143   92.8186    2.7560 C.3     1  UNL1        0.2564
      8 N          59.3576   91.8889    3.9319 N.pl3   1  UNL1       -0.1835
      9 C          57.9507   91.7069    4.4192 C.3     1  UNL1        0.2029
     10 C          57.4575   90.8685    5.5610 C.3     1  UNL1        0.0555
     11 C          58.2496   90.0051    6.4976 C.3     1  UNL1        0.0309
     12 C          60.7890   94.0664    0.9386 C.ar    1  UNL1        0.0312
     13 C          59.5218   94.6238    0.3614 C.ar    1  UNL1        0.0316
     14 C          59.5784   95.5534   -0.8145 C.ar    1  UNL1        0.1694
     15 F          58.3111   96.1108   -1.3917 F       1  UNL1       -0.2017
     16 C          60.9025   95.9256   -1.4130 C.ar    1  UNL1        0.1946
     17 F          60.9593   96.8552   -2.5889 F       1  UNL1       -0.1994
     18 C          62.1699   95.3682   -0.8359 C.ar    1  UNL1        0.1694
     19 F          63.4938   95.7404   -1.4344 F       1  UNL1       -0.2017
     20 C          62.1131   94.4386    0.3400 C.ar    1  UNL1        0.0316
     21 C          61.4571   88.4595    9.8493 C.ar    1  UNL1        0.1547
     22 C          60.9658   89.3868    8.7774 C.ar    1  UNL1        0.0381
     23 C          60.2215   88.8396    7.5957 C.ar    1  UNL1       -0.0006
     24 C          59.9684   87.3652    7.4858 C.ar    1  UNL1        0.0014
     25 C          60.4597   86.4379    8.5576 C.ar    1  UNL1        0.0206
     26 C          61.2041   86.9852    9.7394 C.ar    1  UNL1        0.0994
     27 N          61.6953   86.0580   10.8112 N.ar    1  UNL1       -0.2839
     28 C          61.5894   86.2852   12.2902 C.ar    1  UNL1        0.1826
     29 N          62.2074   85.1084   12.9853 N.ar    1  UNL1       -0.2280
     30 C          62.6952   84.1539   11.9361 C.ar    1  UNL1        0.0786
     31 C          63.3794   82.8427   12.1865 C.3     1  UNL1        0.0538
     32 C          62.3787   84.7407   10.5924 C.ar    1  UNL1        0.0963
     33 C          62.6238   90.4459   11.0506 C.3     1  UNL1        0.2525
     34 O          62.2015   89.0067   11.0310 O.3     1  UNL1       -0.4700
@<TRIPOS>BOND
     1    33    34    1
     2    34    21    1
     3    21    22   ar
     4    22    23   ar
     5    23     1    1
     6     1     2    2
     7     2     3    1
     8     3     4    2
     9     4     5    1
    10     5     6    1
    11     6    12    1
    12    12    13   ar
    13    13    14   ar
    14    14    15    1
    15    14    16   ar
    16    16    17    1
    17    16    18   ar
    18    18    19    1
    19    18    20   ar
    20     6     7    1
    21     7     8    1
    22     8     9    1
    23     9    10    1
    24    10    11    1
    25    23    24   ar
    26    24    25   ar
    27    25    26   ar
    28    26    27    1
    29    27    28   ar
    30    28    29   ar
    31    29    30   ar
    32    30    31    1
    33    30    32   ar
    34    26    21   ar
    35    32    27   ar
    36    11     1    1
    37     8     3    1
    38    20    12   ar
@<TRIPOS>MOLECULE
*****
 34 38 0 0 0
SMALL
GASTEIGER

@<TRIPOS>ATOM
      1 C          59.8560   92.9031    1.6015 C.2     1  UNL1       -0.0144
      2 C          58.9745   92.3432    2.6784 C.2     1  UNL1        0.0893
      3 C          59.3721   91.6129    3.9269 C.2     1  UNL1        0.3693
      4 N          58.1728   91.2217    4.7383 N.2     1  UNL1        0.1553
      5 O          58.3506   90.4796    6.0298 O.2     1  UNL1       -0.2749
      6 C          59.7278   90.1289    6.5097 C.3     1  UNL1        0.2929
      7 C          60.9272   90.5202    5.6983 C.3     1  UNL1        0.2564
      8 N          60.7493   91.2623    4.4068 N.pl3   1  UNL1       -0.1835
      9 C          62.0691   91.5552    3.7569 C.3     1  UNL1        0.2029
     10 C          62.3376   92.2711    2.4664 C.3     1  UNL1        0.0555
     11 C          61.3526   92.8710    1.5072 C.3     1  UNL1        0.0309
     12 C          59.9057   89.3869    7.8011 C.ar    1  UNL1        0.0312
     13 C          60.0120   87.8907    7.7980 C.ar    1  UNL1        0.0316
     14 C          60.1899   87.1487    9.0895 C.ar    1  UNL1        0.1694
     15 F          60.2963   85.6525    9.0863 F       1  UNL1       -0.2017
     16 C          60.2615   87.9030   10.3840 C.ar    1  UNL1        0.1946
     17 F          60.4395   87.1611   11.6755 F       1  UNL1       -0.1994
     18 C          60.1552   89.3992   10.3872 C.ar    1  UNL1        0.1694
     19 F          60.2268   90.1534   11.6817 F       1  UNL1       -0.2017
     20 C          59.9773   90.1412    9.0957 C.ar    1  UNL1        0.0316
     21 C          57.7370   93.4523   -1.7089 C.ar    1  UNL1        0.1547
     22 C          58.4461   92.7700   -0.5766 C.ar    1  UNL1        0.0381
     23 C          59.1469   93.5853    0.4693 C.ar    1  UNL1       -0.0006
     24 C          59.1387   95.0828    0.3832 C.ar    1  UNL1        0.0014
     25 C          58.4296   95.7651   -0.7489 C.ar    1  UNL1        0.0206
     26 C          57.7288   94.9498   -1.7950 C.ar    1  UNL1        0.0994
     27 N          57.0197   95.6320   -2.9271 N.ar    1  UNL1       -0.2839
     28 C          57.6723   96.3146   -4.0926 C.ar    1  UNL1        0.1826
     29 N          56.5895   96.8559   -4.9784 N.ar    1  UNL1       -0.2280
     30 C          55.2678   96.5078   -4.3603 C.ar    1  UNL1        0.0786
     31 C          53.9172   96.8552   -4.9131 C.3     1  UNL1        0.0538
     32 C          55.5337   95.7514   -3.0926 C.ar    1  UNL1        0.0963
     33 C          55.9676   91.6631   -2.3554 C.3     1  UNL1        0.2525
     34 O          57.0362   92.6370   -2.7548 O.3     1  UNL1       -0.4700
@<TRIPOS>BOND
     1    33    34    1
     2    34    21    1
     3    21    22   ar
     4    22    23   ar
     5    23     1    1
     6     1     2    2
     7     2     3    1
     8     3     4    2
     9     4     5    1
    10     5     6    1
    11     6    12    1
    12    12    13   ar
    13    13    14   ar
    14    14    15    1
    15    14    16   ar
    16    16    17    1
    17    16    18   ar
    18    18    19    1
    19    18    20   ar
    20     6     7    1
    21     7     8    1
    22     8     9    1
    23     9    10    1
    24    10    11    1
    25    23    24   ar
    26    24    25   ar
    27    25    26   ar
    28    26    27    1
    29    27    28   ar
    30    28    29   ar
    31    29    30   ar
    32    30    31    1
    33    30    32   ar
    34    26    21   ar
    35    32    27   ar
    36    11     1    1
    37     8     3    1
    38    20    12   ar
@<TRIPOS>MOLECULE
*****
 34 38 0 0 0
SMALL
GASTEIGER

@<TRIPOS>ATOM
      1 C          59.8564   89.2322    6.8816 C.2     1  UNL1       -0.0144
      2 C          60.9851   89.3139    7.8663 C.2     1  UNL1        0.0893
      3 C          61.2902   88.4012    9.0170 C.2     1  UNL1        0.3693
      4 N          62.5189   88.8425    9.7555 N.2     1  UNL1        0.1553
      5 O          62.9995   88.0641   10.9443 O.2     1  UNL1       -0.2749
      6 C          62.2514   86.8444   11.3944 C.3     1  UNL1        0.2929
      7 C          61.0226   86.4031   10.6558 C.3     1  UNL1        0.2564
      8 N          60.5421   87.1815    9.4670 N.pl3   1  UNL1       -0.1835
      9 C          59.3040   86.5732    8.8777 C.3     1  UNL1        0.2029
     10 C          58.5084   87.0344    7.6927 C.3     1  UNL1        0.0555
     11 C          58.7543   88.2178    6.8044 C.3     1  UNL1        0.0309
     12 C          62.7319   86.0659   12.5831 C.ar    1  UNL1        0.0312
     13 C          62.2190   84.6778   12.8279 C.ar    1  UNL1        0.0316
     14 C          62.6996   83.8994   14.0167 C.ar    1  UNL1        0.1694
     15 F          62.1867   82.5112   14.2614 F       1  UNL1       -0.2017
     16 C          63.6931   84.5092   14.9606 C.ar    1  UNL1        0.1946
     17 F          64.1737   83.7308   16.1494 F       1  UNL1       -0.1994
     18 C          64.2061   85.8973   14.7159 C.ar    1  UNL1        0.1694
     19 F          65.1996   86.5070   15.6598 F       1  UNL1       -0.2017
     20 C          63.7255   86.6757   13.5271 C.ar    1  UNL1        0.0316
     21 C          61.0470   91.7376    4.0433 C.ar    1  UNL1        0.1547
     22 C          61.0774   90.6625    5.0890 C.ar    1  UNL1        0.0381
     23 C          59.8261   90.3072    5.8359 C.ar    1  UNL1       -0.0006
     24 C          58.5443   91.0268    5.5371 C.ar    1  UNL1        0.0014
     25 C          58.5139   92.1019    4.4915 C.ar    1  UNL1        0.0206
     26 C          59.7653   92.4572    3.7445 C.ar    1  UNL1        0.0994
     27 N          59.7348   93.5322    2.6989 N.ar    1  UNL1       -0.2839
     28 C          60.1317   94.9653    2.8959 C.ar    1  UNL1        0.1826
     29 N          59.9443   95.6816    1.5914 N.ar    1  UNL1       -0.2280
     30 C          59.4318   94.6913    0.5882 C.ar    1  UNL1        0.0786
     31 C          59.1059   94.9789   -0.8475 C.3     1  UNL1        0.0538
     32 C          59.3023   93.3628    1.2726 C.ar    1  UNL1        0.0963
     33 C          63.4013   91.0857    3.1589 C.3     1  UNL1        0.2525
     34 O          62.2983   92.0929    3.2964 O.3     1  UNL1       -0.4700
@<TRIPOS>BOND
     1    33    34    1
     2    34    21    1
     3    21    22   ar
     4    22    23   ar
     5    23     1    1
     6     1     2    2
     7     2     3    1
     8     3     4    2
     9     4     5    1
    10     5     6    1
    11     6    12    1
    12    12    13   ar
    13    13    14   ar
    14    14    15    1
    15    14    16   ar
    16    16    17    1
    17    16    18   ar
    18    18    19    1
    19    18    20   ar
    20     6     7    1
    21     7     8    1
    22     8     9    1
    23     9    10    1
    24    10    11    1
    25    23    24   ar
    26    24    25   ar
    27    25    26   ar
    28    26    27    1
    29    27    28   ar
    30    28    29   ar
    31    29    30   ar
    32    30    31    1
    33    30    32   ar
    34    26    21   ar
    35    32    27   ar
    36    11     1    1
    37     8     3    1
    38    20    12   ar
@<TRIPOS>MOLECULE
*****
 34 38 0 0 0
SMALL
GASTEIGER

@<TRIPOS>ATOM
      1 C          64.1935   89.1588   13.9579 C.2     1  UNL1       -0.0144
      2 C          63.9041   88.0456   12.9949 C.2     1  UNL1        0.0893
      3 C          63.4346   86.6518   13.2903 C.2     1  UNL1        0.3693
      4 N          63.2670   85.8520   12.0325 N.2     1  UNL1        0.1553
      5 O          62.8035   84.4273   12.1059 O.2     1  UNL1       -0.2749
      6 C          62.5074   83.8025   13.4370 C.3     1  UNL1        0.2929
      7 C          62.6750   84.6024   14.6949 C.3     1  UNL1        0.2564
      8 N          63.1386   86.0272   14.6214 N.pl3   1  UNL1       -0.1835
      9 C          63.2389   86.6418   15.9861 C.3     1  UNL1        0.2029
     10 C          63.6600   88.0330   16.3565 C.3     1  UNL1        0.0555
     11 C          64.0848   89.1531   15.4538 C.3     1  UNL1        0.0309
     12 C          62.0438   82.3779   13.5105 C.ar    1  UNL1        0.0312
     13 C          60.7903   82.0347   14.2593 C.ar    1  UNL1        0.0316
     14 C          60.3267   80.6099   14.3327 C.ar    1  UNL1        0.1694
     15 F          59.0732   80.2667   15.0816 F       1  UNL1       -0.2017
     16 C          61.1168   79.5285   13.6573 C.ar    1  UNL1        0.1946
     17 F          60.6533   78.1038   13.7307 F       1  UNL1       -0.1994
     18 C          62.3704   79.8716   12.9085 C.ar    1  UNL1        0.1694
     19 F          63.1604   78.7902   12.2331 F       1  UNL1       -0.2017
     20 C          62.8339   81.2964   12.8351 C.ar    1  UNL1        0.0316
     21 C          66.2176   92.5213   13.3691 C.ar    1  UNL1        0.1547
     22 C          65.7590   91.2320   13.9837 C.ar    1  UNL1        0.0381
     23 C          64.6521   90.4480   13.3434 C.ar    1  UNL1       -0.0006
     24 C          64.0038   90.9531   12.0886 C.ar    1  UNL1        0.0014
     25 C          64.4623   92.2423   11.4740 C.ar    1  UNL1        0.0206
     26 C          65.5693   93.0264   12.1143 C.ar    1  UNL1        0.0994
     27 N          66.0278   94.3155   11.4998 N.ar    1  UNL1       -0.2839
     28 C          66.1067   95.6436   12.1927 C.ar    1  UNL1        0.1826
     29 N          66.6157   96.6519   11.2056 N.ar    1  UNL1       -0.2280
     30 C          66.8513   95.9470    9.9027 C.ar    1  UNL1        0.0786
     31 C          67.3609   96.5757    8.6397 C.3     1  UNL1        0.0538
     32 C          66.4880   94.5030   10.0845 C.ar    1  UNL1        0.0963
     33 C          67.6058   93.1468   15.4742 C.3     1  UNL1        0.2525
     34 O          67.3245   93.3053   14.0094 O.3     1  UNL1       -0.4700
@<TRIPOS>BOND
     1    33    34    1
     2    34    21    1
     3    21    22   ar
     4    22    23   ar
     5    23     1    1
     6     1     2    2
     7     2     3    1
     8     3     4    2
     9     4     5    1
    10     5     6    1
    11     6    12    1
    12    12    13   ar
    13    13    14   ar
    14    14    15    1
    15    14    16   ar
    16    16    17    1
    17    16    18   ar
    18    18    19    1
    19    18    20   ar
    20     6     7    1
    21     7     8    1
    22     8     9    1
    23     9    10    1
    24    10    11    1
    25    23    24   ar
    26    24    25   ar
    27    25    26   ar
    28    26    27    1
    29    27    28   ar
    30    28    29   ar
    31    29    30   ar
    32    30    31    1
    33    30    32   ar
    34    26    21   ar
    35    32    27   ar
    36    11     1    1
    37     8     3    1
    38    20    12   ar
@<TRIPOS>MOLECULE
*****
 34 38 0 0 0
SMALL
GASTEIGER

@<TRIPOS>ATOM
      1 C          59.7487   89.9417    6.6031 C.2     1  UNL1       -0.0144
      2 C          60.7559   90.5614    5.6802 C.2     1  UNL1        0.0893
      3 C          60.5159   91.4366    4.4858 C.2     1  UNL1        0.3693
      4 N          61.8055   91.8443    3.8373 N.2     1  UNL1        0.1553
      5 O          61.7887   92.7238    2.6222 O.2     1  UNL1       -0.2749
      6 C          60.4823   93.1955    2.0558 C.3     1  UNL1        0.2929
      7 C          59.1927   92.7877    2.7044 C.3     1  UNL1        0.2564
      8 N          59.2096   91.9082    3.9194 N.pl3   1  UNL1       -0.1835
      9 C          57.8205   91.6212    4.4074 C.3     1  UNL1        0.2029
     10 C          57.3947   90.7917    5.5824 C.3     1  UNL1        0.0555
     11 C          58.2530   90.0442    6.5595 C.3     1  UNL1        0.0309
     12 C          60.4654   94.0750    0.8408 C.ar    1  UNL1        0.0312
     13 C          61.7396   94.6890    0.3416 C.ar    1  UNL1        0.0316
     14 C          61.7227   95.5685   -0.8735 C.ar    1  UNL1        0.1694
     15 F          62.9969   96.1826   -1.3727 F       1  UNL1       -0.2017
     16 C          60.4314   95.8339   -1.5892 C.ar    1  UNL1        0.1946
     17 F          60.4144   96.7134   -2.8042 F       1  UNL1       -0.1994
     18 C          59.1572   95.2199   -1.0900 C.ar    1  UNL1        0.1694
     19 F          57.8660   95.4853   -1.8057 F       1  UNL1       -0.2017
     20 C          59.1742   94.3404    0.1250 C.ar    1  UNL1        0.0316
     21 C          61.1686   86.8236    8.6061 C.ar    1  UNL1        0.1547
     22 C          60.6053   87.6558    7.4923 C.ar    1  UNL1        0.0381
     23 C          60.3120   89.1096    7.7168 C.ar    1  UNL1       -0.0006
     24 C          60.5821   89.7313    9.0548 C.ar    1  UNL1        0.0014
     25 C          61.1454   88.8993   10.1686 C.ar    1  UNL1        0.0206
     26 C          61.4386   87.4454    9.9442 C.ar    1  UNL1        0.0994
     27 N          62.0019   86.6134   11.0579 N.ar    1  UNL1       -0.2839
     28 C          62.8327   87.1165   12.2011 C.ar    1  UNL1        0.1826
     29 N          63.1775   85.9461   13.0736 N.ar    1  UNL1       -0.2280
     30 C          62.5600   84.7198   12.4698 C.ar    1  UNL1        0.0786
     31 C          62.6527   83.3258   13.0159 C.3     1  UNL1        0.0538
     32 C          61.8334   85.1321   11.2239 C.ar    1  UNL1        0.0963
     33 C          62.7090   84.9595    7.6564 C.3     1  UNL1        0.2525
     34 O          61.4618   85.3698    8.3817 O.3     1  UNL1       -0.4700
@<TRIPOS>BOND
     1    33    34    1
     2    34    21    1
     3    21    22   ar
     4    22    23   ar
     5    23     1    1
     6     1     2    2
     7     2     3    1
     8     3     4    2
     9     4     5    1
    10     5     6    1
    11     6    12    1
    12    12    13   ar
    13    13    14   ar
    14    14    15    1
    15    14    16   ar
    16    16    17    1
    17    16    18   ar
    18    18    19    1
    19    18    20   ar
    20     6     7    1
    21     7     8    1
    22     8     9    1
    23     9    10    1
    24    10    11    1
    25    23    24   ar
    26    24    25   ar
    27    25    26   ar
    28    26    27    1
    29    27    28   ar
    30    28    29   ar
    31    29    30   ar
    32    30    31    1
    33    30    32   ar
    34    26    21   ar
    35    32    27   ar
    36    11     1    1
    37     8     3    1
    38    20    12   ar
@<TRIPOS>MOLECULE
*****
 34 38 0 0 0
SMALL
GASTEIGER

@<TRIPOS>ATOM
      1 C          72.6741   75.8028   14.7866 C.2     1  UNL1       -0.0144
      2 C          72.1795   75.9996   13.3841 C.2     1  UNL1        0.0893
      3 C          72.2096   77.2446   12.5479 C.2     1  UNL1        0.3693
      4 N          71.6094   77.0095   11.1935 N.2     1  UNL1        0.1553
      5 O          71.5413   78.1301   10.1986 O.2     1  UNL1       -0.2749
      6 C          72.0734   79.4857   10.5582 C.3     1  UNL1        0.2929
      7 C          72.6736   79.7207   11.9127 C.3     1  UNL1        0.2564
      8 N          72.7417   78.6000   12.9075 N.pl3   1  UNL1       -0.1835
      9 C          73.3751   79.0455   14.1922 C.3     1  UNL1        0.2029
     10 C          73.6329   78.2454   15.4345 C.3     1  UNL1        0.0555
     11 C          73.3209   76.8022   15.6990 C.3     1  UNL1        0.0309
     12 C          72.0053   80.6063    9.5635 C.ar    1  UNL1        0.0312
     13 C          72.3107   82.0104    9.9934 C.ar    1  UNL1        0.0316
     14 C          72.2426   83.1311    8.9985 C.ar    1  UNL1        0.1694
     15 F          72.5479   84.5353    9.4285 F       1  UNL1       -0.2017
     16 C          71.8691   82.8473    7.5738 C.ar    1  UNL1        0.1946
     17 F          71.8010   83.9679    6.5789 F       1  UNL1       -0.1994
     18 C          71.5638   81.4431    7.1437 C.ar    1  UNL1        0.1694
     19 F          71.1904   81.1595    5.7190 F       1  UNL1       -0.2017
     20 C          71.6319   80.3226    8.1386 C.ar    1  UNL1        0.0316
     21 C          71.4752   72.0414   15.1926 C.ar    1  UNL1        0.1547
     22 C          71.6507   73.4201   14.6281 C.ar    1  UNL1        0.0381
     23 C          72.4987   74.4241   15.3510 C.ar    1  UNL1       -0.0006
     24 C          73.1712   74.0497   16.6384 C.ar    1  UNL1        0.0014
     25 C          72.9958   72.6711   17.2029 C.ar    1  UNL1        0.0206
     26 C          72.1478   71.6669   16.4800 C.ar    1  UNL1        0.0994
     27 N          71.9724   70.2883   17.0445 N.ar    1  UNL1       -0.2839
     28 C          72.8657   69.1107   16.7889 C.ar    1  UNL1        0.1826
     29 N          72.3182   67.9399   17.5501 N.ar    1  UNL1       -0.2280
     30 C          71.0867   68.3939   18.2761 C.ar    1  UNL1        0.0786
     31 C          70.2209   67.5453   19.1596 C.3     1  UNL1        0.0538
     32 C          70.8729   69.8453   17.9637 C.ar    1  UNL1        0.0963
     33 C          70.2408   71.2728   13.0396 C.3     1  UNL1        0.2525
     34 O          70.6273   71.0373   14.4697 O.3     1  UNL1       -0.4700
@<TRIPOS>BOND
     1    33    34    1
     2    34    21    1
     3    21    22   ar
     4    22    23   ar
     5    23     1    1
     6     1     2    2
     7     2     3    1
     8     3     4    2
     9     4     5    1
    10     5     6    1
    11     6    12    1
    12    12    13   ar
    13    13    14   ar
    14    14    15    1
    15    14    16   ar
    16    16    17    1
    17    16    18   ar
    18    18    19    1
    19    18    20   ar
    20     6     7    1
    21     7     8    1
    22     8     9    1
    23     9    10    1
    24    10    11    1
    25    23    24   ar
    26    24    25   ar
    27    25    26   ar
    28    26    27    1
    29    27    28   ar
    30    28    29   ar
    31    29    30   ar
    32    30    31    1
    33    30    32   ar
    34    26    21   ar
    35    32    27   ar
    36    11     1    1
    37     8     3    1
    38    20    12   ar
@<TRIPOS>MOLECULE
*****
 34 38 0 0 0
SMALL
GASTEIGER

@<TRIPOS>ATOM
      1 C          72.6366   75.8182   14.7745 C.2     1  UNL1       -0.0144
      2 C          72.1279   76.0146   13.3771 C.2     1  UNL1        0.0893
      3 C          72.1621   77.2556   12.5352 C.2     1  UNL1        0.3693
      4 N          71.5436   77.0215   11.1888 N.2     1  UNL1        0.1553
      5 O          71.4763   78.1386   10.1899 O.2     1  UNL1       -0.2749
      6 C          72.0275   79.4897   10.5375 C.3     1  UNL1        0.2929
      7 C          72.6459   79.7238   11.8840 C.3     1  UNL1        0.2564
      8 N          72.7131   78.6066   12.8828 N.pl3   1  UNL1       -0.1835
      9 C          73.3663   79.0505   14.1581 C.3     1  UNL1        0.2029
     10 C          73.6296   78.2528   15.4008 C.3     1  UNL1        0.0555
     11 C          73.3048   76.8142   15.6751 C.3     1  UNL1        0.0309
     12 C          71.9602   80.6068    9.5388 C.ar    1  UNL1        0.0312
     13 C          71.5243   80.3289    8.1308 C.ar    1  UNL1        0.0316
     14 C          71.4571   81.4461    7.1320 C.ar    1  UNL1        0.1694
     15 F          71.0211   81.1681    5.7239 F       1  UNL1       -0.2017
     16 C          71.8258   82.8412    7.5415 C.ar    1  UNL1        0.1946
     17 F          71.7586   83.9584    6.5428 F       1  UNL1       -0.1994
     18 C          72.2617   83.1192    8.9495 C.ar    1  UNL1        0.1694
     19 F          72.6304   84.5143    9.3589 F       1  UNL1       -0.2017
     20 C          72.3289   82.0020    9.9482 C.ar    1  UNL1        0.0316
     21 C          72.6479   72.7935   17.3439 C.ar    1  UNL1        0.1547
     22 C          72.8320   74.1678   16.7716 C.ar    1  UNL1        0.0381
     23 C          72.4525   74.4440   15.3469 C.ar    1  UNL1       -0.0006
     24 C          71.8888   73.3459   14.4946 C.ar    1  UNL1        0.0014
     25 C          71.7047   71.9716   15.0668 C.ar    1  UNL1        0.0206
     26 C          72.0842   71.6955   16.4916 C.ar    1  UNL1        0.0994
     27 N          71.9001   70.3213   17.0639 N.ar    1  UNL1       -0.2839
     28 C          72.7780   69.1330   16.8038 C.ar    1  UNL1        0.1826
     29 N          72.2262   67.9714   17.5760 N.ar    1  UNL1       -0.2280
     30 C          71.0075   68.4416   18.3131 C.ar    1  UNL1        0.0786
     31 C          70.1421   67.6062   19.2095 C.3     1  UNL1        0.0538
     32 C          70.8059   69.8940   17.9967 C.ar    1  UNL1        0.0963
     33 C          72.0820   72.8701   19.8784 C.3     1  UNL1        0.2525
     34 O          73.0274   72.5174   18.7686 O.3     1  UNL1       -0.4700
@<TRIPOS>BOND
     1    33    34    1
     2    34    21    1
     3    21    22   ar
     4    22    23   ar
     5    23     1    1
     6     1     2    2
     7     2     3    1
     8     3     4    2
     9     4     5    1
    10     5     6    1
    11     6    12    1
    12    12    13   ar
    13    13    14   ar
    14    14    15    1
    15    14    16   ar
    16    16    17    1
    17    16    18   ar
    18    18    19    1
    19    18    20   ar
    20     6     7    1
    21     7     8    1
    22     8     9    1
    23     9    10    1
    24    10    11    1
    25    23    24   ar
    26    24    25   ar
    27    25    26   ar
    28    26    27    1
    29    27    28   ar
    30    28    29   ar
    31    29    30   ar
    32    30    31    1
    33    30    32   ar
    34    26    21   ar
    35    32    27   ar
    36    11     1    1
    37     8     3    1
    38    20    12   ar
@<TRIPOS>MOLECULE
*****
 34 38 0 0 0
SMALL
GASTEIGER

@<TRIPOS>ATOM
      1 C          60.1997   89.4215    7.9313 C.2     1  UNL1       -0.0144
      2 C          61.0256   88.1749    7.8129 C.2     1  UNL1        0.0893
      3 C          61.3640   87.1728    8.8766 C.2     1  UNL1        0.3693
      4 N          62.2197   86.0664    8.3347 N.2     1  UNL1        0.1553
      5 O          62.6716   84.9569    9.2374 O.2     1  UNL1       -0.2749
      6 C          62.2677   84.9539   10.6821 C.3     1  UNL1        0.2929
      7 C          61.4120   86.0603   11.2240 C.3     1  UNL1        0.2564
      8 N          60.9602   87.1698   10.3211 N.pl3   1  UNL1       -0.1835
      9 C          60.1182   88.1681   11.0590 C.3     1  UNL1        0.2029
     10 C          59.4721   89.4161   10.5344 C.3     1  UNL1        0.0555
     11 C          59.5084   89.9738    9.1424 C.3     1  UNL1        0.0309
     12 C          62.7195   83.8445   11.5848 C.ar    1  UNL1        0.0312
     13 C          62.5194   82.4155   11.1752 C.ar    1  UNL1        0.0316
     14 C          62.9713   81.3061   12.0781 C.ar    1  UNL1        0.1694
     15 F          62.7711   79.8770   11.6684 F       1  UNL1       -0.2017
     16 C          63.6232   81.6258   13.3906 C.ar    1  UNL1        0.1946
     17 F          64.0751   80.5165   14.2935 F       1  UNL1       -0.1994
     18 C          63.8234   83.0548   13.8003 C.ar    1  UNL1        0.1694
     19 F          64.4754   83.3745   15.1127 F       1  UNL1       -0.2017
     20 C          63.3716   84.1642   12.8974 C.ar    1  UNL1        0.0316
     21 C          61.0972   91.3776    4.5969 C.ar    1  UNL1        0.1547
     22 C          61.2522   90.5776    5.8563 C.ar    1  UNL1        0.0381
     23 C          60.0448   90.2215    6.6719 C.ar    1  UNL1       -0.0006
     24 C          58.6824   90.6653    6.2282 C.ar    1  UNL1        0.0014
     25 C          58.5274   91.4653    4.9688 C.ar    1  UNL1        0.0206
     26 C          59.7349   91.8215    4.1532 C.ar    1  UNL1        0.0994
     27 N          59.5799   92.6214    2.8938 N.ar    1  UNL1       -0.2839
     28 C          60.0667   94.0231    2.6742 C.ar    1  UNL1        0.1826
     29 N          59.6986   94.4281    1.2776 N.ar    1  UNL1       -0.2280
     30 C          58.9842   93.2768    0.6341 C.ar    1  UNL1        0.0786
     31 C          58.4390   93.2472   -0.7630 C.3     1  UNL1        0.0538
     32 C          58.9109   92.1601    1.6330 C.ar    1  UNL1        0.0963
     33 C          63.2442   90.6580    3.3231 C.3     1  UNL1        0.2525
     34 O          62.3046   91.7337    3.7813 O.3     1  UNL1       -0.4700
@<TRIPOS>BOND
     1    33    34    1
     2    34    21    1
     3    21    22   ar
     4    22    23   ar
     5    23     1    1
     6     1     2    2
     7     2     3    1
     8     3     4    2
     9     4     5    1
    10     5     6    1
    11     6    12    1
    12    12    13   ar
    13    13    14   ar
    14    14    15    1
    15    14    16   ar
    16    16    17    1
    17    16    18   ar
    18    18    19    1
    19    18    20   ar
    20     6     7    1
    21     7     8    1
    22     8     9    1
    23     9    10    1
    24    10    11    1
    25    23    24   ar
    26    24    25   ar
    27    25    26   ar
    28    26    27    1
    29    27    28   ar
    30    28    29   ar
    31    29    30   ar
    32    30    31    1
    33    30    32   ar
    34    26    21   ar
    35    32    27   ar
    36    11     1    1
    37     8     3    1
    38    20    12   ar
@<TRIPOS>MOLECULE
*****
 34 38 0 0 0
SMALL
GASTEIGER

@<TRIPOS>ATOM
      1 C          60.2302   89.3834    8.0105 C.2     1  UNL1       -0.0144
      2 C          61.0492   88.1327    7.8872 C.2     1  UNL1        0.0893
      3 C          61.3849   87.1263    8.9477 C.2     1  UNL1        0.3693
      4 N          62.2335   86.0167    8.4011 N.2     1  UNL1        0.1553
      5 O          62.6817   84.9027    9.3001 O.2     1  UNL1       -0.2749
      6 C          62.2813   84.8984   10.7456 C.3     1  UNL1        0.2929
      7 C          61.4327   86.0080   11.2922 C.3     1  UNL1        0.2564
      8 N          60.9845   87.1220   10.3931 N.pl3   1  UNL1       -0.1835
      9 C          60.1496   88.1230   11.1354 C.3     1  UNL1        0.2029
     10 C          59.5088   89.3755   10.6153 C.3     1  UNL1        0.0555
     11 C          59.5447   89.9364    9.2246 C.3     1  UNL1        0.0309
     12 C          62.7294   83.7845   11.6447 C.ar    1  UNL1        0.0312
     13 C          63.3793   84.0974   12.9598 C.ar    1  UNL1        0.0316
     14 C          63.8274   82.9834   13.8589 C.ar    1  UNL1        0.1694
     15 F          64.4774   83.2963   15.1741 F       1  UNL1       -0.2017
     16 C          63.6256   81.5565   13.4427 C.ar    1  UNL1        0.1946
     17 F          64.0737   80.4425   14.3417 F       1  UNL1       -0.1994
     18 C          62.9757   81.2435   12.1276 C.ar    1  UNL1        0.1694
     19 F          62.7739   79.8167   11.7114 F       1  UNL1       -0.2017
     20 C          62.5276   82.3575   11.2285 C.ar    1  UNL1        0.0316
     21 C          58.5650   91.4656    5.0708 C.ar    1  UNL1        0.1547
     22 C          58.7187   90.6618    6.3280 C.ar    1  UNL1        0.0381
     23 C          60.0765   90.1872    6.7534 C.ar    1  UNL1       -0.0006
     24 C          61.2807   90.5163    5.9218 C.ar    1  UNL1        0.0014
     25 C          61.1271   91.3201    4.6646 C.ar    1  UNL1        0.0206
     26 C          59.7692   91.7947    4.2391 C.ar    1  UNL1        0.0994
     27 N          59.6156   92.5985    2.9821 N.ar    1  UNL1       -0.2839
     28 C          60.0858   94.0076    2.7735 C.ar    1  UNL1        0.1826
     29 N          59.7256   94.4142    1.3753 N.ar    1  UNL1       -0.2280
     30 C          59.0328   93.2565    0.7198 C.ar    1  UNL1        0.0786
     31 C          58.5013   93.2263   -0.6826 C.3     1  UNL1        0.0538
     32 C          58.9648   92.1343    1.7128 C.ar    1  UNL1        0.0963
     33 C          55.9818   91.1888    5.0738 C.3     1  UNL1        0.2525
     34 O          57.2072   91.9402    4.6453 O.3     1  UNL1       -0.4700
@<TRIPOS>BOND
     1    33    34    1
     2    34    21    1
     3    21    22   ar
     4    22    23   ar
     5    23     1    1
     6     1     2    2
     7     2     3    1
     8     3     4    2
     9     4     5    1
    10     5     6    1
    11     6    12    1
    12    12    13   ar
    13    13    14   ar
    14    14    15    1
    15    14    16   ar
    16    16    17    1
    17    16    18   ar
    18    18    19    1
    19    18    20   ar
    20     6     7    1
    21     7     8    1
    22     8     9    1
    23     9    10    1
    24    10    11    1
    25    23    24   ar
    26    24    25   ar
    27    25    26   ar
    28    26    27    1
    29    27    28   ar
    30    28    29   ar
    31    29    30   ar
    32    30    31    1
    33    30    32   ar
    34    26    21   ar
    35    32    27   ar
    36    11     1    1
    37     8     3    1
    38    20    12   ar
