@<TRIPOS>MOLECULE
*****
 35 39 0 0 0
SMALL
GASTEIGER

@<TRIPOS>ATOM
      1 N          62.4422   89.6477   12.7829 N.am    1  UNL1       -0.2770
      2 C          63.2321   88.3975   12.5317 C.2     1  UNL1        0.2294
      3 O          64.4872   88.1343   13.3096 O.2     1  UNL1       -0.2747
      4 C          62.7667   87.4104   11.5025 C.3     1  UNL1        0.1211
      5 C          62.2249   87.8944   10.1902 C.3     1  UNL1        0.0804
      6 N          61.7595   86.9074    9.1610 N.3     1  UNL1       -0.2969
      7 C          61.8361   85.4364    9.4442 C.3     1  UNL1        0.0714
      8 C          62.3779   84.9523   10.7564 C.3     1  UNL1        0.0490
      9 C          62.8432   85.9394   11.7856 C.3     1  UNL1        0.1224
     10 O          63.3434   86.8030   12.9055 O.3     1  UNL1       -0.3492
     11 C          63.7894   85.9042   14.0204 C.3     1  UNL1        0.1687
     12 C          63.5649   84.4849   13.5897 C.ar    1  UNL1        0.0079
     13 C          63.8174   83.1757   14.2767 C.ar    1  UNL1        0.0299
     14 C          63.4851   81.8881   13.5825 C.ar    1  UNL1        0.1671
     15 F          63.7376   80.5789   14.2694 F       1  UNL1       -0.2018
     16 C          62.9004   81.9099   12.2013 C.ar    1  UNL1        0.1671
     17 F          62.5682   80.6224   11.5071 F       1  UNL1       -0.2018
     18 C          62.6479   83.2192   11.5143 C.ar    1  UNL1        0.0297
     19 C          62.9801   84.5067   12.2084 C.ar    1  UNL1        0.0033
     20 H          62.3133   87.0748    8.3210 H       1  UNL1        0.1233
     21 C          61.1869   89.9108   12.0050 C.3     1  UNL1        0.0758
     22 C          60.4944   90.5286   10.8265 C.3     1  UNL1        0.0215
     23 C          59.7053   89.7487   11.8360 C.3     1  UNL1        0.0215
     24 C          62.9075   90.6347   13.8121 C.3     1  UNL1        0.1197
     25 C          63.8511   91.9049   11.2634 C.3     1  UNL1        0.0307
     26 C          64.7619   91.8454   12.4537 C.ar    1  UNL1       -0.0203
     27 C          64.2901   91.2103   13.7281 C.ar    1  UNL1       -0.0063
     28 C          65.2008   91.1508   14.9184 C.ar    1  UNL1       -0.0029
     29 C          66.5834   91.7264   14.8344 C.ar    1  UNL1       -0.0003
     30 C          67.0553   92.3615   13.5601 C.ar    1  UNL1        0.0035
     31 C          66.1445   92.4210   12.3697 C.ar    1  UNL1        0.0672
     32 C          66.6164   93.0561   11.0953 C.3     1  UNL1        0.4183
     33 F          67.0882   93.6912    9.8210 F       1  UNL1       -0.1659
     34 F          67.3017   91.7780   10.7122 F       1  UNL1       -0.1659
     35 F          65.9310   94.3341   11.4785 F       1  UNL1       -0.1659
@<TRIPOS>BOND
     1    25    26    1
     2    26    27   ar
     3    27    24    1
     4    24     1    1
     5     1     2   am
     6     2     3    2
     7     4     2    1
     8     4     5    1
     9     5     6    1
    10     6     7    1
    11     7     8    1
    12     9     8    1
    13     9    10    1
    14    10    11    1
    15    11    12    1
    16    12    13   ar
    17    13    14   ar
    18    14    15    1
    19    14    16   ar
    20    16    17    1
    21    16    18   ar
    22    18    19   ar
    23     1    21    1
    24    21    22    1
    25    22    23    1
    26    27    28   ar
    27    28    29   ar
    28    29    30   ar
    29    30    31   ar
    30    31    32    1
    31    32    33    1
    32    32    34    1
    33    32    35    1
    34    31    26   ar
    35     9     4    1
    36    19    12   ar
    37    23    21    1
    38    19     9    1
    39     6    20    1
@<TRIPOS>MOLECULE
*****
 35 39 0 0 0
SMALL
GASTEIGER

@<TRIPOS>ATOM
      1 N          62.2426   89.7088   12.5036 N.am    1  UNL1       -0.2770
      2 C          63.0518   88.4650   12.2844 C.2     1  UNL1        0.2294
      3 O          64.3324   88.2608   13.0384 O.2     1  UNL1       -0.2747
      4 C          62.5804   87.4253   11.3113 C.3     1  UNL1        0.1211
      5 C          61.9764   87.8417   10.0029 C.3     1  UNL1        0.0804
      6 N          61.5051   86.8021    9.0299 N.3     1  UNL1       -0.2969
      7 C          61.6377   85.3460    9.3651 C.3     1  UNL1        0.0714
      8 C          62.2417   84.9297   10.6734 C.3     1  UNL1        0.0490
      9 C          62.7131   85.9693   11.6465 C.3     1  UNL1        0.1224
     10 O          63.2264   86.8903   12.7135 O.3     1  UNL1       -0.3492
     11 C          63.7404   86.0490   13.8441 C.3     1  UNL1        0.1687
     12 C          63.5448   84.6081   13.4758 C.ar    1  UNL1        0.0079
     13 C          63.8629   83.3346   14.2016 C.ar    1  UNL1        0.0299
     14 C          63.5460   82.0117   13.5694 C.ar    1  UNL1        0.1671
     15 F          63.8640   80.7382   14.2952 F       1  UNL1       -0.2018
     16 C          62.9111   81.9625   12.2113 C.ar    1  UNL1        0.1671
     17 F          62.5943   80.6397   11.5790 F       1  UNL1       -0.2018
     18 C          62.5931   83.2360   11.4853 C.ar    1  UNL1        0.0297
     19 C          62.9099   84.5589   12.1176 C.ar    1  UNL1        0.0033
     20 H          62.0225   86.9532    8.1639 H       1  UNL1        0.1233
     21 C          60.9620   89.9130   11.7496 C.3     1  UNL1        0.0758
     22 C          59.4721   89.7664   11.6559 C.3     1  UNL1        0.0215
     23 C          60.2339   90.4132   10.5374 C.3     1  UNL1        0.0215
     24 C          62.7139   90.7485   13.4767 C.3     1  UNL1        0.1197
     25 C          64.5563   90.9293   15.8374 C.3     1  UNL1        0.0307
     26 C          64.9961   91.4499   14.5012 C.ar    1  UNL1       -0.0203
     27 C          64.0749   91.3595   13.3208 C.ar    1  UNL1       -0.0063
     28 C          64.5147   91.8801   11.9846 C.ar    1  UNL1       -0.0029
     29 C          65.8757   92.4911   11.8287 C.ar    1  UNL1       -0.0003
     30 C          66.7969   92.5815   13.0090 C.ar    1  UNL1        0.0035
     31 C          66.3572   92.0609   14.3453 C.ar    1  UNL1        0.0672
     32 C          67.2784   92.1513   15.5256 C.3     1  UNL1        0.4183
     33 F          68.1996   92.2417   16.7059 F       1  UNL1       -0.1659
     34 F          67.8692   90.8202   15.1664 F       1  UNL1       -0.1659
     35 F          66.6875   93.4824   15.8848 F       1  UNL1       -0.1659
@<TRIPOS>BOND
     1    25    26    1
     2    26    27   ar
     3    27    24    1
     4    24     1    1
     5     1     2   am
     6     2     3    2
     7     4     2    1
     8     4     5    1
     9     5     6    1
    10     6     7    1
    11     7     8    1
    12     9     8    1
    13     9    10    1
    14    10    11    1
    15    11    12    1
    16    12    13   ar
    17    13    14   ar
    18    14    15    1
    19    14    16   ar
    20    16    17    1
    21    16    18   ar
    22    18    19   ar
    23     1    21    1
    24    21    22    1
    25    22    23    1
    26    27    28   ar
    27    28    29   ar
    28    29    30   ar
    29    30    31   ar
    30    31    32    1
    31    32    33    1
    32    32    34    1
    33    32    35    1
    34    31    26   ar
    35     9     4    1
    36    19    12   ar
    37    23    21    1
    38    19     9    1
    39     6    20    1
@<TRIPOS>MOLECULE
*****
 35 39 0 0 0
SMALL
GASTEIGER

@<TRIPOS>ATOM
      1 N          60.0987   95.4498   -0.9392 N.am    1  UNL1       -0.2770
      2 C          58.8114   95.9417   -1.5314 C.2     1  UNL1        0.2294
      3 O          57.8214   96.6717   -0.6729 O.2     1  UNL1       -0.2747
      4 C          58.5140   95.7037   -2.9823 C.3     1  UNL1        0.1211
      5 C          58.9707   96.6925   -4.0136 C.3     1  UNL1        0.0804
      6 N          58.6733   96.4545   -5.4644 N.3     1  UNL1       -0.2969
      7 C          57.9192   95.2275   -5.8839 C.3     1  UNL1        0.0714
      8 C          57.4625   94.2387   -4.8526 C.3     1  UNL1        0.0490
      9 C          57.7599   94.4768   -3.4018 C.3     1  UNL1        0.1224
     10 O          57.9826   94.5798   -1.9220 O.3     1  UNL1       -0.3492
     11 C          57.3606   93.3780   -1.2748 C.3     1  UNL1        0.1687
     12 C          56.7535   92.5321   -2.3547 C.ar    1  UNL1        0.0079
     13 C          56.0080   91.2313   -2.3108 C.ar    1  UNL1        0.0299
     14 C          55.5091   90.6095   -3.5815 C.ar    1  UNL1        0.1671
     15 F          54.7635   89.3088   -3.5377 F       1  UNL1       -0.2018
     16 C          55.7559   91.2886   -4.8960 C.ar    1  UNL1        0.1671
     17 F          55.2570   90.6669   -6.1667 F       1  UNL1       -0.2018
     18 C          56.5015   92.5895   -4.9399 C.ar    1  UNL1        0.0297
     19 C          57.0003   93.2112   -3.6693 C.ar    1  UNL1        0.0033
     20 H          59.5707   96.4284   -5.9485 H       1  UNL1        0.1233
     21 C          61.0887   94.7199   -1.7979 C.3     1  UNL1        0.0758
     22 C          61.5052   93.4811   -2.5340 C.3     1  UNL1        0.0215
     23 C          62.3868   94.6945   -2.5489 C.3     1  UNL1        0.0215
     24 C          60.3961   95.6879    0.5116 C.3     1  UNL1        0.1197
     25 C          60.5686   92.8794    1.5521 C.3     1  UNL1        0.0307
     26 C          61.7646   93.7816    1.6268 C.ar    1  UNL1       -0.0203
     27 C          61.6783   95.1859    1.1065 C.ar    1  UNL1       -0.0063
     28 C          62.8743   96.0881    1.1812 C.ar    1  UNL1       -0.0029
     29 C          64.1565   95.5861    1.7761 C.ar    1  UNL1       -0.0003
     30 C          64.2428   94.1819    2.2964 C.ar    1  UNL1        0.0035
     31 C          63.0468   93.2796    2.2217 C.ar    1  UNL1        0.0672
     32 C          63.1330   91.8754    2.7420 C.3     1  UNL1        0.4183
     33 F          63.2193   90.4712    3.2623 F       1  UNL1       -0.1659
     34 F          64.2792   91.6020    1.8139 F       1  UNL1       -0.1659
     35 F          61.9868   92.1489    3.6701 F       1  UNL1       -0.1659
@<TRIPOS>BOND
     1    25    26    1
     2    26    27   ar
     3    27    24    1
     4    24     1    1
     5     1     2   am
     6     2     3    2
     7     4     2    1
     8     4     5    1
     9     5     6    1
    10     6     7    1
    11     7     8    1
    12     9     8    1
    13     9    10    1
    14    10    11    1
    15    11    12    1
    16    12    13   ar
    17    13    14   ar
    18    14    15    1
    19    14    16   ar
    20    16    17    1
    21    16    18   ar
    22    18    19   ar
    23     1    21    1
    24    21    22    1
    25    22    23    1
    26    27    28   ar
    27    28    29   ar
    28    29    30   ar
    29    30    31   ar
    30    31    32    1
    31    32    33    1
    32    32    34    1
    33    32    35    1
    34    31    26   ar
    35     9     4    1
    36    19    12   ar
    37    23    21    1
    38    19     9    1
    39     6    20    1
@<TRIPOS>MOLECULE
*****
 35 39 0 0 0
SMALL
GASTEIGER

@<TRIPOS>ATOM
      1 N          61.9229   95.1845   -2.5244 N.am    1  UNL1       -0.2770
      2 C          60.6998   95.8420   -3.0915 C.2     1  UNL1        0.2294
      3 O          59.9478   96.8545   -2.2794 O.2     1  UNL1       -0.2747
      4 C          60.2287   95.4871   -4.4707 C.3     1  UNL1        0.1211
      5 C          60.8126   96.1822   -5.6647 C.3     1  UNL1        0.0804
      6 N          60.3415   95.8273   -7.0438 N.3     1  UNL1       -0.2969
      7 C          59.2864   94.7773   -7.2289 C.3     1  UNL1        0.0714
      8 C          58.7024   94.0822   -6.0349 C.3     1  UNL1        0.0490
      9 C          59.1736   94.4371   -4.6558 C.3     1  UNL1        0.1224
     10 O          59.5432   94.6848   -3.2232 O.3     1  UNL1       -0.3492
     11 C          58.7155   93.7731   -2.3666 C.3     1  UNL1        0.1687
     12 C          57.8343   92.9619   -3.2697 C.ar    1  UNL1        0.0079
     13 C          56.8108   91.9026   -2.9866 C.ar    1  UNL1        0.0299
     14 C          56.0702   91.2537   -4.1183 C.ar    1  UNL1        0.1671
     15 F          55.0467   90.1944   -3.8352 F       1  UNL1       -0.2018
     16 C          56.3534   91.6641   -5.5330 C.ar    1  UNL1        0.1671
     17 F          55.6129   91.0152   -6.6646 F       1  UNL1       -0.2018
     18 C          57.3770   92.7234   -5.8161 C.ar    1  UNL1        0.0297
     19 C          58.1174   93.3723   -4.6845 C.ar    1  UNL1        0.0033
     20 H          61.1616   95.5155   -7.5640 H       1  UNL1        0.1233
     21 C          62.6749   94.1720   -3.3365 C.3     1  UNL1        0.0758
     22 C          63.3727   93.7843   -4.6065 C.3     1  UNL1        0.0215
     23 C          63.2796   92.8061   -3.4731 C.3     1  UNL1        0.0215
     24 C          62.3941   95.5393   -1.1453 C.3     1  UNL1        0.1197
     25 C          64.1432   93.4928    0.1785 C.3     1  UNL1        0.0307
     26 C          62.7616   93.7503    0.7026 C.ar    1  UNL1       -0.0203
     27 C          61.8870   94.7736    0.0407 C.ar    1  UNL1       -0.0063
     28 C          60.5054   95.0311    0.5648 C.ar    1  UNL1       -0.0029
     29 C          59.9983   94.2654    1.7508 C.ar    1  UNL1       -0.0003
     30 C          60.8728   93.2422    2.4127 C.ar    1  UNL1        0.0035
     31 C          62.2545   92.9846    1.8886 C.ar    1  UNL1        0.0672
     32 C          63.1291   91.9614    2.5505 C.3     1  UNL1        0.4183
     33 F          64.0036   90.9382    3.2123 F       1  UNL1       -0.1659
     34 F          63.8273   93.0498    3.3106 F       1  UNL1       -0.1659
     35 F          62.4309   90.8730    1.7904 F       1  UNL1       -0.1659
@<TRIPOS>BOND
     1    25    26    1
     2    26    27   ar
     3    27    24    1
     4    24     1    1
     5     1     2   am
     6     2     3    2
     7     4     2    1
     8     4     5    1
     9     5     6    1
    10     6     7    1
    11     7     8    1
    12     9     8    1
    13     9    10    1
    14    10    11    1
    15    11    12    1
    16    12    13   ar
    17    13    14   ar
    18    14    15    1
    19    14    16   ar
    20    16    17    1
    21    16    18   ar
    22    18    19   ar
    23     1    21    1
    24    21    22    1
    25    22    23    1
    26    27    28   ar
    27    28    29   ar
    28    29    30   ar
    29    30    31   ar
    30    31    32    1
    31    32    33    1
    32    32    34    1
    33    32    35    1
    34    31    26   ar
    35     9     4    1
    36    19    12   ar
    37    23    21    1
    38    19     9    1
    39     6    20    1
@<TRIPOS>MOLECULE
*****
 35 39 0 0 0
SMALL
GASTEIGER

@<TRIPOS>ATOM
      1 N          62.0379   95.2468   -1.5604 N.am    1  UNL1       -0.2770
      2 C          60.8526   95.9303   -2.1754 C.2     1  UNL1        0.2294
      3 O          60.0038   96.8491   -1.3477 O.2     1  UNL1       -0.2747
      4 C          60.5163   95.6948   -3.6181 C.3     1  UNL1        0.1211
      5 C          61.2124   96.4817   -4.6887 C.3     1  UNL1        0.0804
      6 N          60.8760   96.2462   -6.1313 N.3     1  UNL1       -0.2969
      7 C          59.8435   95.2237   -6.5034 C.3     1  UNL1        0.0714
      8 C          59.1473   94.4368   -5.4329 C.3     1  UNL1        0.0490
      9 C          59.4837   94.6723   -3.9903 C.3     1  UNL1        0.1224
     10 O          59.7139   94.7973   -2.5132 O.3     1  UNL1       -0.3492
     11 C          58.8076   93.8245   -1.8188 C.3     1  UNL1        0.1687
     12 C          58.0172   93.0982   -2.8666 C.ar    1  UNL1        0.0079
     13 C          56.9711   92.0275   -2.7722 C.ar    1  UNL1        0.0299
     14 C          56.3427   91.4806   -4.0197 C.ar    1  UNL1        0.1671
     15 F          55.2966   90.4099   -3.9252 F       1  UNL1       -0.2018
     16 C          56.7606   92.0046   -5.3616 C.ar    1  UNL1        0.1671
     17 F          56.1322   91.4579   -6.6091 F       1  UNL1       -0.2018
     18 C          57.8068   93.0754   -5.4561 C.ar    1  UNL1        0.0297
     19 C          58.4351   93.6222   -4.2087 C.ar    1  UNL1        0.0033
     20 H          61.7423   95.9719   -6.5947 H       1  UNL1        0.1233
     21 C          62.8867   94.3279   -2.3882 C.3     1  UNL1        0.0758
     22 C          64.1667   94.0473   -3.1181 C.3     1  UNL1        0.0215
     23 C          63.0768   93.0170   -3.0919 C.3     1  UNL1        0.0215
     24 C          62.3743   95.4823   -0.1177 C.3     1  UNL1        0.1197
     25 C          59.8700   94.8040    1.3885 C.3     1  UNL1        0.0307
     26 C          61.1162   93.9974    1.6036 C.ar    1  UNL1       -0.0203
     27 C          62.3684   94.3366    0.8504 C.ar    1  UNL1       -0.0063
     28 C          63.6147   93.5300    1.0655 C.ar    1  UNL1       -0.0029
     29 C          63.6088   92.3843    2.0337 C.ar    1  UNL1       -0.0003
     30 C          62.3567   92.0452    2.7867 C.ar    1  UNL1        0.0035
     31 C          61.1104   92.8517    2.5717 C.ar    1  UNL1        0.0672
     32 C          59.8583   92.5126    3.3248 C.3     1  UNL1        0.4183
     33 F          58.6062   92.1734    4.0779 F       1  UNL1       -0.1659
     34 F          59.0547   92.6972    2.0718 F       1  UNL1       -0.1659
     35 F          60.6620   92.3279    4.5778 F       1  UNL1       -0.1659
@<TRIPOS>BOND
     1    25    26    1
     2    26    27   ar
     3    27    24    1
     4    24     1    1
     5     1     2   am
     6     2     3    2
     7     4     2    1
     8     4     5    1
     9     5     6    1
    10     6     7    1
    11     7     8    1
    12     9     8    1
    13     9    10    1
    14    10    11    1
    15    11    12    1
    16    12    13   ar
    17    13    14   ar
    18    14    15    1
    19    14    16   ar
    20    16    17    1
    21    16    18   ar
    22    18    19   ar
    23     1    21    1
    24    21    22    1
    25    22    23    1
    26    27    28   ar
    27    28    29   ar
    28    29    30   ar
    29    30    31   ar
    30    31    32    1
    31    32    33    1
    32    32    34    1
    33    32    35    1
    34    31    26   ar
    35     9     4    1
    36    19    12   ar
    37    23    21    1
    38    19     9    1
    39     6    20    1
@<TRIPOS>MOLECULE
*****
 35 39 0 0 0
SMALL
GASTEIGER

@<TRIPOS>ATOM
      1 N          63.7721   90.9322   12.8232 N.am    1  UNL1       -0.2770
      2 C          63.0236   89.7179   13.2869 C.2     1  UNL1        0.2294
      3 O          63.0109   89.3550   14.7423 O.2     1  UNL1       -0.2747
      4 C          62.2877   88.8663   12.2952 C.3     1  UNL1        0.1211
      5 C          61.2871   89.4898   11.3679 C.3     1  UNL1        0.0804
      6 N          60.5513   88.6383   10.3762 N.3     1  UNL1       -0.2969
      7 C          60.8162   87.1633   10.3118 C.3     1  UNL1        0.0714
      8 C          61.8168   86.5398   11.2391 C.3     1  UNL1        0.0490
      9 C          62.5525   87.3913   12.2308 C.3     1  UNL1        0.1224
     10 O          63.3608   88.1115   13.2692 O.3     1  UNL1       -0.3492
     11 C          64.2284   87.1035   13.9628 C.3     1  UNL1        0.1687
     12 C          63.9565   85.7602   13.3530 C.ar    1  UNL1        0.0079
     13 C          64.5181   84.3981   13.6342 C.ar    1  UNL1        0.0299
     14 C          64.0441   83.2137   12.8450 C.ar    1  UNL1        0.1671
     15 F          64.6057   81.8517   13.1261 F       1  UNL1       -0.2018
     16 C          63.0084   83.3917   11.7746 C.ar    1  UNL1        0.1671
     17 F          62.5344   82.2074   10.9854 F       1  UNL1       -0.2018
     18 C          62.4467   84.7539   11.4934 C.ar    1  UNL1        0.0297
     19 C          62.9207   85.9381   12.2826 C.ar    1  UNL1        0.0033
     20 H          60.7603   89.0156    9.4518 H       1  UNL1        0.1233
     21 C          63.7848   91.2951   11.3678 C.3     1  UNL1        0.0758
     22 C          63.1612   91.2227   10.0054 C.3     1  UNL1        0.0215
     23 C          64.4303   91.9959   10.2093 C.3     1  UNL1        0.0215
     24 C          64.5079   91.7837   13.8149 C.3     1  UNL1        0.1197
     25 C          66.0782   92.6495   16.2201 C.3     1  UNL1        0.0307
     26 C          66.7847   92.3490   14.9315 C.ar    1  UNL1       -0.0203
     27 C          65.9996   91.9161   13.7289 C.ar    1  UNL1       -0.0063
     28 C          66.7061   91.6156   12.4403 C.ar    1  UNL1       -0.0029
     29 C          68.1978   91.7479   12.3543 C.ar    1  UNL1       -0.0003
     30 C          68.9829   92.1808   13.5568 C.ar    1  UNL1        0.0035
     31 C          68.2764   92.4813   14.8455 C.ar    1  UNL1        0.0672
     32 C          69.0615   92.9142   16.0480 C.3     1  UNL1        0.4183
     33 F          69.8467   93.3471   17.2506 F       1  UNL1       -0.1659
     34 F          68.7903   91.5915   16.7012 F       1  UNL1       -0.1659
     35 F          69.3327   94.2370   15.3948 F       1  UNL1       -0.1659
@<TRIPOS>BOND
     1    25    26    1
     2    26    27   ar
     3    27    24    1
     4    24     1    1
     5     1     2   am
     6     2     3    2
     7     4     2    1
     8     4     5    1
     9     5     6    1
    10     6     7    1
    11     7     8    1
    12     9     8    1
    13     9    10    1
    14    10    11    1
    15    11    12    1
    16    12    13   ar
    17    13    14   ar
    18    14    15    1
    19    14    16   ar
    20    16    17    1
    21    16    18   ar
    22    18    19   ar
    23     1    21    1
    24    21    22    1
    25    22    23    1
    26    27    28   ar
    27    28    29   ar
    28    29    30   ar
    29    30    31   ar
    30    31    32    1
    31    32    33    1
    32    32    34    1
    33    32    35    1
    34    31    26   ar
    35     9     4    1
    36    19    12   ar
    37    23    21    1
    38    19     9    1
    39     6    20    1
@<TRIPOS>MOLECULE
*****
 35 39 0 0 0
SMALL
GASTEIGER

@<TRIPOS>ATOM
      1 N          59.7340   94.7609   -0.8336 N.am    1  UNL1       -0.2770
      2 C          58.4652   95.3447   -1.3807 C.2     1  UNL1        0.2294
      3 O          57.4852   96.0065   -0.4580 O.2     1  UNL1       -0.2747
      4 C          58.1765   95.2667   -2.8507 C.3     1  UNL1        0.1211
      5 C          58.6402   96.3614   -3.7652 C.3     1  UNL1        0.0804
      6 N          58.3515   96.2834   -5.2351 N.3     1  UNL1       -0.2969
      7 C          57.5991   95.1106   -5.7904 C.3     1  UNL1        0.0714
      8 C          57.1353   94.0158   -4.8758 C.3     1  UNL1        0.0490
      9 C          57.4241   94.0939   -3.4060 C.3     1  UNL1        0.1224
     10 O          57.6378   94.0346   -1.9224 O.3     1  UNL1       -0.3492
     11 C          57.0110   92.7703   -1.4139 C.3     1  UNL1        0.1687
     12 C          56.4099   92.0481   -2.5831 C.ar    1  UNL1        0.0079
     13 C          55.6631   90.7514   -2.6858 C.ar    1  UNL1        0.0299
     14 C          55.1714   90.2725   -4.0197 C.ar    1  UNL1        0.1671
     15 F          54.4246   88.9758   -4.1224 F       1  UNL1       -0.2018
     16 C          55.4267   91.0905   -5.2508 C.ar    1  UNL1        0.1671
     17 F          54.9352   90.6118   -6.5846 F       1  UNL1       -0.2018
     18 C          56.1736   92.3874   -5.1482 C.ar    1  UNL1        0.0297
     19 C          56.6652   92.8661   -3.8143 C.ar    1  UNL1        0.0033
     20 H          59.2518   96.3090   -5.7138 H       1  UNL1        0.1233
     21 C          60.7141   94.0991   -1.7564 C.3     1  UNL1        0.0758
     22 C          61.1159   93.6771   -3.1386 C.3     1  UNL1        0.0215
     23 C          62.0097   93.3748   -1.9725 C.3     1  UNL1        0.0215
     24 C          60.0228   94.8389    0.6362 C.3     1  UNL1        0.1197
     25 C          62.3226   96.7649    0.6722 C.3     1  UNL1        0.0307
     26 C          62.5080   95.3659    1.1804 C.ar    1  UNL1       -0.0203
     27 C          61.3580   94.4029    1.1624 C.ar    1  UNL1       -0.0063
     28 C          61.5434   93.0038    1.6707 C.ar    1  UNL1       -0.0029
     29 C          62.8787   92.5678    2.1969 C.ar    1  UNL1       -0.0003
     30 C          64.0286   93.5308    2.2149 C.ar    1  UNL1        0.0035
     31 C          63.8433   94.9299    1.7066 C.ar    1  UNL1        0.0672
     32 C          64.9931   95.8929    1.7246 C.3     1  UNL1        0.4183
     33 F          66.1430   96.8558    1.7426 F       1  UNL1       -0.1659
     34 F          64.7908   96.1070    3.1954 F       1  UNL1       -0.1659
     35 F          65.1955   95.6788    0.2539 F       1  UNL1       -0.1659
@<TRIPOS>BOND
     1    25    26    1
     2    26    27   ar
     3    27    24    1
     4    24     1    1
     5     1     2   am
     6     2     3    2
     7     4     2    1
     8     4     5    1
     9     5     6    1
    10     6     7    1
    11     7     8    1
    12     9     8    1
    13     9    10    1
    14    10    11    1
    15    11    12    1
    16    12    13   ar
    17    13    14   ar
    18    14    15    1
    19    14    16   ar
    20    16    17    1
    21    16    18   ar
    22    18    19   ar
    23     1    21    1
    24    21    22    1
    25    22    23    1
    26    27    28   ar
    27    28    29   ar
    28    29    30   ar
    29    30    31   ar
    30    31    32    1
    31    32    33    1
    32    32    34    1
    33    32    35    1
    34    31    26   ar
    35     9     4    1
    36    19    12   ar
    37    23    21    1
    38    19     9    1
    39     6    20    1
@<TRIPOS>MOLECULE
*****
 35 39 0 0 0
SMALL
GASTEIGER

@<TRIPOS>ATOM
      1 N          44.8385   73.4943   17.8337 N.am    1  UNL1       -0.2770
      2 C          45.8313   74.4486   17.2391 C.2     1  UNL1        0.2294
      3 O          46.0979   74.4305   15.7631 O.2     1  UNL1       -0.2747
      4 C          46.5577   75.4210   18.1206 C.3     1  UNL1        0.1211
      5 C          47.6613   74.9416   19.0163 C.3     1  UNL1        0.0804
      6 N          48.3876   75.9140   19.8977 N.3     1  UNL1       -0.2969
      7 C          48.0103   77.3657   19.8834 C.3     1  UNL1        0.0714
      8 C          46.9067   77.8450   18.9877 C.3     1  UNL1        0.0490
      9 C          46.1804   76.8727   18.1063 C.3     1  UNL1        0.1224
     10 O          45.3686   76.0221   17.1747 O.3     1  UNL1       -0.3492
     11 C          44.3813   76.9105   16.4776 C.3     1  UNL1        0.1687
     12 C          44.5828   78.3101   16.9782 C.ar    1  UNL1        0.0079
     13 C          43.8976   79.6027   16.6476 C.ar    1  UNL1        0.0299
     14 C          44.3241   80.8721   17.3235 C.ar    1  UNL1        0.1671
     15 F          43.6389   82.1647   16.9929 F       1  UNL1       -0.2018
     16 C          45.4360   80.8487   18.3301 C.ar    1  UNL1        0.1671
     17 F          45.8625   82.1179   19.0061 F       1  UNL1       -0.2018
     18 C          46.1213   79.5560   18.6608 C.ar    1  UNL1        0.0297
     19 C          45.6948   78.2867   17.9849 C.ar    1  UNL1        0.0033
     20 H          49.3737   75.8635   19.6419 H       1  UNL1        0.1233
     21 C          44.5720   73.5124   19.3098 C.3     1  UNL1        0.0758
     22 C          43.9020   74.1298   20.5014 C.3     1  UNL1        0.0215
     23 C          44.7804   72.9263   20.6747 C.3     1  UNL1        0.0215
     24 C          44.1121   72.5219   16.9523 C.3     1  UNL1        0.1197
     25 C          43.6331   71.8053   14.0788 C.3     1  UNL1        0.0307
     26 C          44.6129   71.0159   14.8953 C.ar    1  UNL1       -0.0203
     27 C          44.8524   71.3741   16.3321 C.ar    1  UNL1       -0.0063
     28 C          45.8321   70.5847   17.1486 C.ar    1  UNL1       -0.0029
     29 C          46.5724   69.4369   16.5285 C.ar    1  UNL1       -0.0003
     30 C          46.3329   69.0786   15.0917 C.ar    1  UNL1        0.0035
     31 C          45.3531   69.8681   14.2751 C.ar    1  UNL1        0.0672
     32 C          45.1136   69.5098   12.8384 C.3     1  UNL1        0.4183
     33 F          44.8741   69.1515   11.4017 F       1  UNL1       -0.1659
     34 F          46.5909   69.5515   12.5817 F       1  UNL1       -0.1659
     35 F          43.6364   69.4681   13.0950 F       1  UNL1       -0.1659
@<TRIPOS>BOND
     1    25    26    1
     2    26    27   ar
     3    27    24    1
     4    24     1    1
     5     1     2   am
     6     2     3    2
     7     4     2    1
     8     4     5    1
     9     5     6    1
    10     6     7    1
    11     7     8    1
    12     9     8    1
    13     9    10    1
    14    10    11    1
    15    11    12    1
    16    12    13   ar
    17    13    14   ar
    18    14    15    1
    19    14    16   ar
    20    16    17    1
    21    16    18   ar
    22    18    19   ar
    23     1    21    1
    24    21    22    1
    25    22    23    1
    26    27    28   ar
    27    28    29   ar
    28    29    30   ar
    29    30    31   ar
    30    31    32    1
    31    32    33    1
    32    32    34    1
    33    32    35    1
    34    31    26   ar
    35     9     4    1
    36    19    12   ar
    37    23    21    1
    38    19     9    1
    39     6    20    1
@<TRIPOS>MOLECULE
*****
 35 39 0 0 0
SMALL
GASTEIGER

@<TRIPOS>ATOM
      1 N          62.8766   86.9618   12.8383 N.am    1  UNL1       -0.2770
      2 C          62.5690   88.4288   12.7814 C.2     1  UNL1        0.2294
      3 O          61.5784   88.9492   11.7824 O.2     1  UNL1       -0.2747
      4 C          63.2519   89.3755   13.7235 C.3     1  UNL1        0.1211
      5 C          63.2100   89.1232   15.2015 C.3     1  UNL1        0.0804
      6 N          63.8929   90.0698   16.1435 N.3     1  UNL1       -0.2969
      7 C          64.6177   91.2688   15.6076 C.3     1  UNL1        0.0714
      8 C          64.6595   91.5211   14.1296 C.3     1  UNL1        0.0490
      9 C          63.9766   90.5744   13.1875 C.3     1  UNL1        0.1224
     10 O          63.3437   89.7205   12.1290 O.3     1  UNL1       -0.3492
     11 C          63.6346   90.3433   10.7958 C.3     1  UNL1        0.1687
     12 C          64.4474   91.5821   11.0302 C.ar    1  UNL1        0.0079
     13 C          65.0222   92.5984   10.0887 C.ar    1  UNL1        0.0299
     14 C          65.8085   93.7577   10.6254 C.ar    1  UNL1        0.1671
     15 F          66.3834   94.7740    9.6839 F       1  UNL1       -0.2018
     16 C          66.0199   93.9005   12.1035 C.ar    1  UNL1        0.1671
     17 F          66.8061   95.0598   12.6401 F       1  UNL1       -0.2018
     18 C          65.4450   92.8842   13.0451 C.ar    1  UNL1        0.0297
     19 C          64.6587   91.7249   12.5084 C.ar    1  UNL1        0.0033
     20 H          64.5761   89.5225   16.6671 H       1  UNL1        0.1233
     21 C          63.8672   86.4415   13.8374 C.3     1  UNL1        0.0758
     22 C          65.1562   85.7380   14.1434 C.3     1  UNL1        0.0215
     23 C          64.2940   86.2438   15.2617 C.3     1  UNL1        0.0215
     24 C          62.1938   86.0152   11.8963 C.3     1  UNL1        0.1197
     25 C          61.9975   83.7526   13.8564 C.3     1  UNL1        0.0307
     26 C          62.7234   83.5593   12.5582 C.ar    1  UNL1       -0.0203
     27 C          62.8216   84.6906   11.5780 C.ar    1  UNL1       -0.0063
     28 C          63.5476   84.4973   10.2798 C.ar    1  UNL1       -0.0029
     29 C          64.1754   83.1727    9.9615 C.ar    1  UNL1       -0.0003
     30 C          64.0772   82.0414   10.9416 C.ar    1  UNL1        0.0035
     31 C          63.3512   82.2347   12.2399 C.ar    1  UNL1        0.0672
     32 C          63.2531   81.1034   13.2200 C.3     1  UNL1        0.4183
     33 F          63.1550   79.9721   14.2000 F       1  UNL1       -0.1659
     34 F          62.2801   80.4053   12.3167 F       1  UNL1       -0.1659
     35 F          64.2261   81.8015   14.1232 F       1  UNL1       -0.1659
@<TRIPOS>BOND
     1    25    26    1
     2    26    27   ar
     3    27    24    1
     4    24     1    1
     5     1     2   am
     6     2     3    2
     7     4     2    1
     8     4     5    1
     9     5     6    1
    10     6     7    1
    11     7     8    1
    12     9     8    1
    13     9    10    1
    14    10    11    1
    15    11    12    1
    16    12    13   ar
    17    13    14   ar
    18    14    15    1
    19    14    16   ar
    20    16    17    1
    21    16    18   ar
    22    18    19   ar
    23     1    21    1
    24    21    22    1
    25    22    23    1
    26    27    28   ar
    27    28    29   ar
    28    29    30   ar
    29    30    31   ar
    30    31    32    1
    31    32    33    1
    32    32    34    1
    33    32    35    1
    34    31    26   ar
    35     9     4    1
    36    19    12   ar
    37    23    21    1
    38    19     9    1
    39     6    20    1
