@<TRIPOS>MOLECULE
*****
 25 27 0 0 0
SMALL
GASTEIGER

@<TRIPOS>ATOM
      1 C          64.6622   91.8769   15.1783 C.2     1  UNL1        0.0412
      2 C          64.2521   90.4649   15.4749 C.2     1  UNL1       -0.0326
      3 C          64.5847   89.3682   14.5071 C.3     1  UNL1        0.0442
      4 C          64.1747   87.9562   14.8038 C.3     1  UNL1        0.0981
      5 N          63.4319   87.6409   16.0683 N.am    1  UNL1       -0.2754
      6 C          63.0218   86.2289   16.3650 C.2     1  UNL1        0.2491
      7 O          62.2791   85.9136   17.6295 O.2     1  UNL1       -0.2699
      8 C          63.0993   88.7376   17.0361 C.3     1  UNL1        0.0981
      9 C          63.5094   90.1496   16.7394 C.3     1  UNL1        0.0442
     10 C          63.3544   85.1322   15.3972 C.ar    1  UNL1        0.0558
     11 C          64.6955   85.1056   14.7257 C.ar    1  UNL1        0.0047
     12 C          65.0281   84.0089   13.7579 C.ar    1  UNL1        0.0025
     13 C          64.0197   82.9388   13.4616 C.ar    1  UNL1        0.0296
     14 C          62.6786   82.9654   14.1331 C.ar    1  UNL1        0.1403
     15 F          61.6702   81.8952   13.8367 F       1  UNL1       -0.2042
     16 C          62.3460   84.0620   15.1009 C.ar    1  UNL1        0.0341
     17 C          66.1477   92.5077   12.6493 C.1     1  UNL1       -0.0405
     18 C          65.4050   92.1923   13.9137 C.1     1  UNL1       -0.0583
     19 C          67.4164   95.8679    8.8944 C.3     1  UNL1        0.0521
     20 C          67.5248   94.5032    9.5074 C.ar    1  UNL1        0.0600
     21 C          68.3758   93.4538    8.8559 C.ar    1  UNL1        0.0148
     22 C          68.4842   92.0890    9.4688 C.ar    1  UNL1        0.0034
     23 C          67.7415   91.7737   10.7333 C.ar    1  UNL1        0.0276
     24 C          66.8904   92.8230   11.3848 C.ar    1  UNL1        0.1224
     25 N          66.7821   94.1878   10.7718 N.ar    1  UNL1       -0.2414
@<TRIPOS>BOND
     1    19    20    1
     2    20    21   ar
     3    21    22   ar
     4    22    23   ar
     5    23    24   ar
     6    24    17    1
     7    17    18    3
     8    18     1    1
     9     1     2    2
    10     2     3    1
    11     3     4    1
    12     4     5    1
    13     5     6   am
    14     6     7    2
    15     6    10    1
    16    10    11   ar
    17    11    12   ar
    18    12    13   ar
    19    13    14   ar
    20    14    15    1
    21    14    16   ar
    22     5     8    1
    23     8     9    1
    24    24    25   ar
    25    25    20   ar
    26     9     2    1
    27    16    10   ar
@<TRIPOS>MOLECULE
*****
 25 27 0 0 0
SMALL
GASTEIGER

@<TRIPOS>ATOM
      1 C          63.4709   88.8428   13.1870 C.2     1  UNL1        0.0412
      2 C          64.1914   90.1519   13.0573 C.2     1  UNL1       -0.0326
      3 C          64.2057   90.8731   11.7421 C.3     1  UNL1        0.0442
      4 C          64.9262   92.1823   11.6123 C.3     1  UNL1        0.0981
      5 N          65.6326   92.7703   12.7978 N.am    1  UNL1       -0.2754
      6 C          66.3531   94.0795   12.6681 C.2     1  UNL1        0.2491
      7 O          67.0594   94.6675   13.8536 O.2     1  UNL1       -0.2699
      8 C          65.6183   92.0492   14.1130 C.3     1  UNL1        0.0981
      9 C          64.8977   90.7399   14.2427 C.3     1  UNL1        0.0442
     10 C          66.3673   94.8006   11.3529 C.ar    1  UNL1        0.0558
     11 C          65.6934   96.1342   11.2214 C.ar    1  UNL1        0.0047
     12 C          65.7076   96.8553    9.9062 C.ar    1  UNL1        0.0025
     13 C          66.3959   96.2429    8.7225 C.ar    1  UNL1        0.0296
     14 C          67.0698   94.9094    8.8540 C.ar    1  UNL1        0.1403
     15 F          67.7581   94.2969    7.6702 F       1  UNL1       -0.2042
     16 C          67.0556   94.1882   10.1692 C.ar    1  UNL1        0.0341
     17 C          62.0582   87.6666   10.8161 C.1     1  UNL1       -0.0405
     18 C          62.7645   88.2547   12.0015 C.1     1  UNL1       -0.0583
     19 C          62.1073   84.6328    6.5978 C.3     1  UNL1        0.0521
     20 C          61.3765   85.5616    7.5215 C.ar    1  UNL1        0.0600
     21 C          59.9394   85.9024    7.2597 C.ar    1  UNL1        0.0148
     22 C          59.2085   86.8313    8.1833 C.ar    1  UNL1        0.0034
     23 C          59.9148   87.4193    9.3688 C.ar    1  UNL1        0.0276
     24 C          61.3519   87.0786    9.6306 C.ar    1  UNL1        0.1224
     25 N          62.0827   86.1497    8.7069 N.ar    1  UNL1       -0.2414
@<TRIPOS>BOND
     1    19    20    1
     2    20    21   ar
     3    21    22   ar
     4    22    23   ar
     5    23    24   ar
     6    24    17    1
     7    17    18    3
     8    18     1    1
     9     1     2    2
    10     2     3    1
    11     3     4    1
    12     4     5    1
    13     5     6   am
    14     6     7    2
    15     6    10    1
    16    10    11   ar
    17    11    12   ar
    18    12    13   ar
    19    13    14   ar
    20    14    15    1
    21    14    16   ar
    22     5     8    1
    23     8     9    1
    24    24    25   ar
    25    25    20   ar
    26     9     2    1
    27    16    10   ar
@<TRIPOS>MOLECULE
*****
 25 27 0 0 0
SMALL
GASTEIGER

@<TRIPOS>ATOM
      1 C          64.4315   91.1384   15.4428 C.2     1  UNL1        0.0412
      2 C          64.0915   89.6786   15.3857 C.2     1  UNL1       -0.0326
      3 C          64.3859   88.8878   14.1456 C.3     1  UNL1        0.0442
      4 C          64.0459   87.4280   14.0886 C.3     1  UNL1        0.0981
      5 N          63.4114   86.7589   15.2717 N.am    1  UNL1       -0.2754
      6 C          63.0714   85.2991   15.2147 C.2     1  UNL1        0.2491
      7 O          62.4370   84.6301   16.3978 O.2     1  UNL1       -0.2699
      8 C          63.1170   87.5497   16.5119 C.3     1  UNL1        0.0981
      9 C          63.4570   89.0096   16.5688 C.3     1  UNL1        0.0442
     10 C          63.3659   84.5083   13.9746 C.ar    1  UNL1        0.0558
     11 C          64.1866   83.2558   14.0610 C.ar    1  UNL1        0.0047
     12 C          64.4811   82.4650   12.8209 C.ar    1  UNL1        0.0025
     13 C          63.9549   82.9267   11.4943 C.ar    1  UNL1        0.0296
     14 C          63.1342   84.1793   11.4079 C.ar    1  UNL1        0.1403
     15 F          62.6079   84.6411   10.0813 F       1  UNL1       -0.2042
     16 C          62.8397   84.9701   12.6480 C.ar    1  UNL1        0.0341
     17 C          65.7004   92.4767   13.0765 C.1     1  UNL1       -0.0405
     18 C          65.0660   91.8076   14.2596 C.1     1  UNL1       -0.0583
     19 C          68.7710   92.2516    8.8907 C.3     1  UNL1        0.0521
     20 C          67.8702   93.0332    9.8005 C.ar    1  UNL1        0.0600
     21 C          67.6039   94.4838    9.5272 C.ar    1  UNL1        0.0148
     22 C          66.7031   95.2654   10.4369 C.ar    1  UNL1        0.0034
     23 C          66.0686   94.5964   11.6200 C.ar    1  UNL1        0.0276
     24 C          66.3349   93.1458   11.8934 C.ar    1  UNL1        0.1224
     25 N          67.2357   92.3642   10.9836 N.ar    1  UNL1       -0.2414
@<TRIPOS>BOND
     1    19    20    1
     2    20    21   ar
     3    21    22   ar
     4    22    23   ar
     5    23    24   ar
     6    24    17    1
     7    17    18    3
     8    18     1    1
     9     1     2    2
    10     2     3    1
    11     3     4    1
    12     4     5    1
    13     5     6   am
    14     6     7    2
    15     6    10    1
    16    10    11   ar
    17    11    12   ar
    18    12    13   ar
    19    13    14   ar
    20    14    15    1
    21    14    16   ar
    22     5     8    1
    23     8     9    1
    24    24    25   ar
    25    25    20   ar
    26     9     2    1
    27    16    10   ar
@<TRIPOS>MOLECULE
*****
 25 27 0 0 0
SMALL
GASTEIGER

@<TRIPOS>ATOM
      1 C          62.6495   85.9814   16.8354 C.2     1  UNL1        0.0412
      2 C          63.1318   87.3462   16.4419 C.2     1  UNL1       -0.0326
      3 C          63.6486   87.5879   15.0547 C.3     1  UNL1        0.0442
      4 C          64.1308   88.9526   14.6612 C.3     1  UNL1        0.0981
      5 N          64.0963   90.0757   15.6550 N.am    1  UNL1       -0.2754
      6 C          64.5786   91.4405   15.2615 C.2     1  UNL1        0.2491
      7 O          64.5441   92.5634   16.2553 O.2     1  UNL1       -0.2699
      8 C          63.5796   89.8340   17.0423 C.3     1  UNL1        0.0981
      9 C          63.0973   88.4692   17.4357 C.3     1  UNL1        0.0442
     10 C          65.0953   91.6822   13.8742 C.ar    1  UNL1        0.0558
     11 C          66.5491   91.9808   13.6569 C.ar    1  UNL1        0.0047
     12 C          67.0659   92.2225   12.2696 C.ar    1  UNL1        0.0025
     13 C          66.1289   92.1657   11.0997 C.ar    1  UNL1        0.0296
     14 C          64.6751   91.8671   11.3171 C.ar    1  UNL1        0.1403
     15 F          63.7380   91.8102   10.1471 F       1  UNL1       -0.2042
     16 C          64.1583   91.6254   12.7043 C.ar    1  UNL1        0.0341
     17 C          62.7185   83.7353   14.8479 C.1     1  UNL1       -0.0405
     18 C          62.6840   84.8583   15.8416 C.1     1  UNL1       -0.0583
     19 C          63.9431   81.9386   10.1285 C.3     1  UNL1        0.0521
     20 C          63.3653   81.7139   11.4944 C.ar    1  UNL1        0.0600
     21 C          62.8220   80.3662   11.8666 C.ar    1  UNL1        0.0148
     22 C          62.2442   80.1415   13.2324 C.ar    1  UNL1        0.0034
     23 C          62.2097   81.2645   14.2262 C.ar    1  UNL1        0.0276
     24 C          62.7530   82.6122   13.8541 C.ar    1  UNL1        0.1224
     25 N          63.3308   82.8369   12.4882 N.ar    1  UNL1       -0.2414
@<TRIPOS>BOND
     1    19    20    1
     2    20    21   ar
     3    21    22   ar
     4    22    23   ar
     5    23    24   ar
     6    24    17    1
     7    17    18    3
     8    18     1    1
     9     1     2    2
    10     2     3    1
    11     3     4    1
    12     4     5    1
    13     5     6   am
    14     6     7    2
    15     6    10    1
    16    10    11   ar
    17    11    12   ar
    18    12    13   ar
    19    13    14   ar
    20    14    15    1
    21    14    16   ar
    22     5     8    1
    23     8     9    1
    24    24    25   ar
    25    25    20   ar
    26     9     2    1
    27    16    10   ar
@<TRIPOS>MOLECULE
*****
 25 27 0 0 0
SMALL
GASTEIGER

@<TRIPOS>ATOM
      1 C          62.8995   87.7425   16.6521 C.2     1  UNL1        0.0412
      2 C          63.6219   88.9329   16.0943 C.2     1  UNL1       -0.0326
      3 C          64.4077   88.8053   14.8230 C.3     1  UNL1        0.0442
      4 C          65.1301   89.9957   14.2652 C.3     1  UNL1        0.0981
      5 N          65.0667   91.3136   14.9787 N.am    1  UNL1       -0.2754
      6 C          65.7891   92.5040   14.4209 C.2     1  UNL1        0.2491
      7 O          65.7257   93.8218   15.1344 O.2     1  UNL1       -0.2699
      8 C          64.2809   91.4412   16.2500 C.3     1  UNL1        0.0981
      9 C          63.5585   90.2507   16.8078 C.3     1  UNL1        0.0442
     10 C          66.5749   92.3764   13.1496 C.ar    1  UNL1        0.0558
     11 C          67.9050   91.6831   13.1563 C.ar    1  UNL1        0.0047
     12 C          68.6908   91.5556   11.8850 C.ar    1  UNL1        0.0025
     13 C          68.1465   92.1214   10.6069 C.ar    1  UNL1        0.0296
     14 C          66.8164   92.8147   10.6001 C.ar    1  UNL1        0.1403
     15 F          66.2720   93.3805    9.3220 F       1  UNL1       -0.2042
     16 C          66.0306   92.9422   11.8715 C.ar    1  UNL1        0.0341
     17 C          63.0263   85.1067   15.2251 C.1     1  UNL1       -0.0405
     18 C          62.9629   86.4246   15.9386 C.1     1  UNL1       -0.0583
     19 C          60.9027   80.5061   14.0739 C.3     1  UNL1        0.0521
     20 C          62.0279   81.4885   13.9360 C.ar    1  UNL1        0.0600
     21 C          63.2163   81.1529   13.0847 C.ar    1  UNL1        0.0148
     22 C          64.3415   82.1353   12.9468 C.ar    1  UNL1        0.0034
     23 C          64.2782   83.4532   13.6602 C.ar    1  UNL1        0.0276
     24 C          63.0897   83.7887   14.5116 C.ar    1  UNL1        0.1224
     25 N          61.9645   82.8064   14.6495 N.ar    1  UNL1       -0.2414
@<TRIPOS>BOND
     1    19    20    1
     2    20    21   ar
     3    21    22   ar
     4    22    23   ar
     5    23    24   ar
     6    24    17    1
     7    17    18    3
     8    18     1    1
     9     1     2    2
    10     2     3    1
    11     3     4    1
    12     4     5    1
    13     5     6   am
    14     6     7    2
    15     6    10    1
    16    10    11   ar
    17    11    12   ar
    18    12    13   ar
    19    13    14   ar
    20    14    15    1
    21    14    16   ar
    22     5     8    1
    23     8     9    1
    24    24    25   ar
    25    25    20   ar
    26     9     2    1
    27    16    10   ar
@<TRIPOS>MOLECULE
*****
 25 27 0 0 0
SMALL
GASTEIGER

@<TRIPOS>ATOM
      1 C          62.1337   88.3024   10.6258 C.2     1  UNL1        0.0412
      2 C          62.9707   89.4607   11.0814 C.2     1  UNL1       -0.0326
      3 C          63.8867   89.3068   12.2592 C.3     1  UNL1        0.0442
      4 C          64.7237   90.4652   12.7147 C.3     1  UNL1        0.0981
      5 N          64.6448   91.7775   11.9924 N.am    1  UNL1       -0.2754
      6 C          65.4818   92.9359   12.4480 C.2     1  UNL1        0.2491
      7 O          65.4028   94.2481   11.7257 O.2     1  UNL1       -0.2699
      8 C          63.7288   91.9314   10.8146 C.3     1  UNL1        0.0981
      9 C          62.8917   90.7730   10.3591 C.3     1  UNL1        0.0442
     10 C          66.3978   92.7820   13.6258 C.ar    1  UNL1        0.0558
     11 C          65.8506   92.8784   15.0191 C.ar    1  UNL1        0.0047
     12 C          66.7666   92.7245   16.1969 C.ar    1  UNL1        0.0025
     13 C          68.2298   92.4742   15.9815 C.ar    1  UNL1        0.0296
     14 C          68.7770   92.3778   14.5882 C.ar    1  UNL1        0.1403
     15 F          70.2402   92.1275   14.3727 F       1  UNL1       -0.2042
     16 C          67.8610   92.5317   13.4104 C.ar    1  UNL1        0.0341
     17 C          62.2917   85.6778   12.0704 C.1     1  UNL1       -0.0405
     18 C          62.2127   86.9900   11.3481 C.1     1  UNL1       -0.0583
     19 C          62.7410   80.5022   11.9632 C.3     1  UNL1        0.0521
     20 C          62.5953   81.7776   12.7390 C.ar    1  UNL1        0.0600
     21 C          62.5286   81.7409   14.2370 C.ar    1  UNL1        0.0148
     22 C          62.3829   83.0163   15.0129 C.ar    1  UNL1        0.0034
     23 C          62.3039   84.3286   14.2907 C.ar    1  UNL1        0.0276
     24 C          62.3707   84.3654   12.7926 C.ar    1  UNL1        0.1224
     25 N          62.5163   83.0899   12.0168 N.ar    1  UNL1       -0.2414
@<TRIPOS>BOND
     1    19    20    1
     2    20    21   ar
     3    21    22   ar
     4    22    23   ar
     5    23    24   ar
     6    24    17    1
     7    17    18    3
     8    18     1    1
     9     1     2    2
    10     2     3    1
    11     3     4    1
    12     4     5    1
    13     5     6   am
    14     6     7    2
    15     6    10    1
    16    10    11   ar
    17    11    12   ar
    18    12    13   ar
    19    13    14   ar
    20    14    15    1
    21    14    16   ar
    22     5     8    1
    23     8     9    1
    24    24    25   ar
    25    25    20   ar
    26     9     2    1
    27    16    10   ar
@<TRIPOS>MOLECULE
*****
 25 27 0 0 0
SMALL
GASTEIGER

@<TRIPOS>ATOM
      1 C          63.4154   88.2317   16.6606 C.2     1  UNL1        0.0412
      2 C          63.2096   86.8905   16.0214 C.2     1  UNL1       -0.0326
      3 C          63.5995   86.6745   14.5891 C.3     1  UNL1        0.0442
      4 C          63.3937   85.3333   13.9498 C.3     1  UNL1        0.0981
      5 N          62.7981   84.2079   14.7429 N.am    1  UNL1       -0.2754
      6 C          62.5924   82.8667   14.1036 C.2     1  UNL1        0.2491
      7 O          61.9969   81.7413   14.8966 O.2     1  UNL1       -0.2699
      8 C          62.4083   84.4238   16.1751 C.3     1  UNL1        0.0981
      9 C          62.6141   85.7651   16.8144 C.3     1  UNL1        0.0442
     10 C          62.9822   82.6507   12.6713 C.ar    1  UNL1        0.0558
     11 C          63.1612   81.2578   12.1446 C.ar    1  UNL1        0.0047
     12 C          63.5510   81.0418   10.7123 C.ar    1  UNL1        0.0025
     13 C          63.7619   82.2189    9.8068 C.ar    1  UNL1        0.0296
     14 C          63.5829   83.6119   10.3335 C.ar    1  UNL1        0.1403
     15 F          63.7938   84.7890    9.4280 F       1  UNL1       -0.2042
     16 C          63.1931   83.8278   11.7658 C.ar    1  UNL1        0.0341
     17 C          64.6065   90.4825   15.0747 C.1     1  UNL1       -0.0405
     18 C          64.0109   89.3571   15.8676 C.1     1  UNL1       -0.0583
     19 C          65.2688   92.9364   10.5426 C.3     1  UNL1        0.0521
     20 C          65.5332   92.8348   12.0156 C.ar    1  UNL1        0.0600
     21 C          66.3931   93.8586   12.6956 C.ar    1  UNL1        0.0148
     22 C          66.6574   93.7570   14.1686 C.ar    1  UNL1        0.0034
     23 C          66.0619   92.6317   14.9616 C.ar    1  UNL1        0.0276
     24 C          65.2020   91.6079   14.2816 C.ar    1  UNL1        0.1224
     25 N          64.9377   91.7095   12.8086 N.ar    1  UNL1       -0.2414
@<TRIPOS>BOND
     1    19    20    1
     2    20    21   ar
     3    21    22   ar
     4    22    23   ar
     5    23    24   ar
     6    24    17    1
     7    17    18    3
     8    18     1    1
     9     1     2    2
    10     2     3    1
    11     3     4    1
    12     4     5    1
    13     5     6   am
    14     6     7    2
    15     6    10    1
    16    10    11   ar
    17    11    12   ar
    18    12    13   ar
    19    13    14   ar
    20    14    15    1
    21    14    16   ar
    22     5     8    1
    23     8     9    1
    24    24    25   ar
    25    25    20   ar
    26     9     2    1
    27    16    10   ar
@<TRIPOS>MOLECULE
*****
 25 27 0 0 0
SMALL
GASTEIGER

@<TRIPOS>ATOM
      1 C          62.6897   88.1784   12.2670 C.2     1  UNL1        0.0412
      2 C          61.8214   88.1815   11.0439 C.2     1  UNL1       -0.0326
      3 C          61.7771   89.3917   10.1587 C.3     1  UNL1        0.0442
      4 C          60.9088   89.3948    8.9356 C.3     1  UNL1        0.0981
      5 N          60.0847   88.1878    8.5977 N.am    1  UNL1       -0.2754
      6 C          59.2164   88.1909    7.3746 C.2     1  UNL1        0.2491
      7 O          58.3924   86.9839    7.0368 O.2     1  UNL1       -0.2699
      8 C          60.1290   86.9777    9.4829 C.3     1  UNL1        0.0981
      9 C          60.9974   86.9746   10.7061 C.3     1  UNL1        0.0442
     10 C          59.1721   89.4010    6.4894 C.ar    1  UNL1        0.0558
     11 C          60.4412   89.9565    5.9143 C.ar    1  UNL1        0.0047
     12 C          60.3969   91.1666    5.0290 C.ar    1  UNL1        0.0025
     13 C          59.0835   91.8212    4.7189 C.ar    1  UNL1        0.0296
     14 C          57.8143   91.2658    5.2939 C.ar    1  UNL1        0.1403
     15 F          56.5008   91.9204    4.9838 F       1  UNL1       -0.2042
     16 C          57.8586   90.0557    6.1792 C.ar    1  UNL1        0.0341
     17 C          64.3377   90.5924   12.9427 C.1     1  UNL1       -0.0405
     18 C          63.5138   89.3854   12.6049 C.1     1  UNL1       -0.0583
     19 C          66.4011   95.1600   11.5716 C.3     1  UNL1        0.0521
     20 C          66.1935   94.0832   12.5950 C.ar    1  UNL1        0.0600
     21 C          66.8098   94.2134   13.9563 C.ar    1  UNL1        0.0148
     22 C          66.6022   93.1366   14.9797 C.ar    1  UNL1        0.0034
     23 C          65.7782   91.9296   14.6419 C.ar    1  UNL1        0.0276
     24 C          65.1618   91.7994   13.2806 C.ar    1  UNL1        0.1224
     25 N          65.3695   92.8762   12.2572 N.ar    1  UNL1       -0.2414
@<TRIPOS>BOND
     1    19    20    1
     2    20    21   ar
     3    21    22   ar
     4    22    23   ar
     5    23    24   ar
     6    24    17    1
     7    17    18    3
     8    18     1    1
     9     1     2    2
    10     2     3    1
    11     3     4    1
    12     4     5    1
    13     5     6   am
    14     6     7    2
    15     6    10    1
    16    10    11   ar
    17    11    12   ar
    18    12    13   ar
    19    13    14   ar
    20    14    15    1
    21    14    16   ar
    22     5     8    1
    23     8     9    1
    24    24    25   ar
    25    25    20   ar
    26     9     2    1
    27    16    10   ar
@<TRIPOS>MOLECULE
*****
 25 27 0 0 0
SMALL
GASTEIGER

@<TRIPOS>ATOM
      1 C          61.9807   88.0270   10.4837 C.2     1  UNL1        0.0412
      2 C          62.8028   89.2054   10.9142 C.2     1  UNL1       -0.0326
      3 C          63.7213   89.0881   12.0944 C.3     1  UNL1        0.0442
      4 C          64.5434   90.2665   12.5250 C.3     1  UNL1        0.0981
      5 N          64.4472   91.5622   11.7754 N.am    1  UNL1       -0.2754
      6 C          65.2693   92.7406   12.2060 C.2     1  UNL1        0.2491
      7 O          65.1730   94.0363   11.4564 O.2     1  UNL1       -0.2699
      8 C          63.5287   91.6795   10.5953 C.3     1  UNL1        0.0981
      9 C          62.7066   90.5011   10.1647 C.3     1  UNL1        0.0442
     10 C          66.1877   92.6233   13.3861 C.ar    1  UNL1        0.0558
     11 C          67.6510   92.3696   13.1754 C.ar    1  UNL1        0.0047
     12 C          68.5694   92.2523   14.3556 C.ar    1  UNL1        0.0025
     13 C          68.0246   92.3887   15.7464 C.ar    1  UNL1        0.0296
     14 C          66.5613   92.6424   15.9571 C.ar    1  UNL1        0.1403
     15 F          66.0164   92.7789   17.3480 F       1  UNL1       -0.2042
     16 C          65.6429   92.7597   14.7770 C.ar    1  UNL1        0.0341
     17 C          62.1732   85.4355   11.9827 C.1     1  UNL1       -0.0405
     18 C          62.0770   86.7312   11.2332 C.1     1  UNL1       -0.0583
     19 C          62.7119   80.2673   11.9848 C.3     1  UNL1        0.0521
     20 C          62.5388   81.5557   12.7333 C.ar    1  UNL1        0.0600
     21 C          62.4619   81.5483   14.2313 C.ar    1  UNL1        0.0148
     22 C          62.2888   82.8366   14.9798 C.ar    1  UNL1        0.0034
     23 C          62.1926   84.1323   14.2303 C.ar    1  UNL1        0.0276
     24 C          62.2694   84.1397   12.7323 C.ar    1  UNL1        0.1224
     25 N          62.4425   82.8514   11.9838 N.ar    1  UNL1       -0.2414
@<TRIPOS>BOND
     1    19    20    1
     2    20    21   ar
     3    21    22   ar
     4    22    23   ar
     5    23    24   ar
     6    24    17    1
     7    17    18    3
     8    18     1    1
     9     1     2    2
    10     2     3    1
    11     3     4    1
    12     4     5    1
    13     5     6   am
    14     6     7    2
    15     6    10    1
    16    10    11   ar
    17    11    12   ar
    18    12    13   ar
    19    13    14   ar
    20    14    15    1
    21    14    16   ar
    22     5     8    1
    23     8     9    1
    24    24    25   ar
    25    25    20   ar
    26     9     2    1
    27    16    10   ar
