@<TRIPOS>MOLECULE
*****
 39 44 0 0 0
SMALL
GASTEIGER

@<TRIPOS>ATOM
      1 C          64.4566   89.9433   14.3558 C.ar    1  UNL1        0.1669
      2 N          64.5427   88.4714   14.0800 N.ar    1  UNL1       -0.2221
      3 C          63.9249   87.7458   15.2384 C.ar    1  UNL1        0.1307
      4 C          63.7280   86.2854   15.5182 C.ar    1  UNL1        0.0777
      5 C          63.0631   85.8485   16.7899 C.ar    1  UNL1        0.0893
      6 CL         62.8662   84.3879   17.0697 Cl      1  UNL1       -0.0794
      7 C          62.5951   86.8719   17.7815 C.ar    1  UNL1        0.0863
      8 N          62.7920   88.3323   17.5017 N.ar    1  UNL1       -0.3354
      9 C          63.4569   88.7693   16.2301 C.ar    1  UNL1        0.1613
     10 N          63.7855   90.1274   15.6846 N.ar    1  UNL1       -0.2080
     11 H          62.4848   89.0040   18.1526 H       1  UNL1        0.1675
     12 C          66.1473   91.8535   13.8633 C.ar    1  UNL1        0.1428
     13 C          66.6448   92.9490   12.9675 C.ar    1  UNL1        0.0515
     14 C          65.9492   93.2298   11.6686 C.ar    1  UNL1        0.0510
     15 C          64.7560   92.4151   11.2653 C.ar    1  UNL1        0.0148
     16 C          64.2585   91.3196   12.1611 C.ar    1  UNL1        0.0074
     17 C          64.9541   91.0388   13.4601 C.ar    1  UNL1        0.0698
     18 N          66.4468   94.3253   10.7729 N.pl3   1  UNL1       -0.3027
     19 C          66.2066   95.7601   11.1384 C.3     1  UNL1        0.1231
     20 C          66.7042   96.8556   10.2427 C.3     1  UNL1        0.1636
     21 O          67.4418   96.5164    8.9815 O.3     1  UNL1       -0.3501
     22 C          67.6820   95.0815    8.6159 C.3     1  UNL1        0.1636
     23 C          67.1844   93.9860    9.5116 C.3     1  UNL1        0.1231
     24 C          67.2092   92.7040   16.0767 C.3     1  UNL1        0.2525
     25 O          66.8429   91.5728   15.1623 O.3     1  UNL1       -0.4713
     26 N          64.1960   85.2619   14.5265 N.pl3   1  UNL1       -0.3313
     27 H          64.9830   84.7056   14.7275 H       1  UNL1        0.1469
     28 C          63.4650   85.0860   13.2286 C.3     1  UNL1        0.0819
     29 C          63.0660   83.7782   12.6117 C.3     1  UNL1        0.0983
     30 C          62.3590   84.0709   11.3215 C.3     1  UNL1        0.0323
     31 C          61.8985   85.1718   10.4127 C.2     1  UNL1       -0.0304
     32 C          62.2974   86.4795   11.0296 C.2     1  UNL1       -0.0294
     33 C          63.0045   86.1869   12.3198 C.3     1  UNL1        0.0404
     34 C          63.0425   84.6982   12.5002 C.3     1  UNL1        0.0109
     35 C          63.3281   82.4168   13.1843 C.2     1  UNL1        0.2208
     36 N          63.1211   81.1950   12.3391 N.am    1  UNL1       -0.3288
     37 O          63.7972   82.2771   14.6022 O.2     1  UNL1       -0.2753
     38 H          62.8132   81.2867   11.4085 H       1  UNL1        0.1449
     39 H          63.2931   80.3015   12.7149 H       1  UNL1        0.1449
@<TRIPOS>BOND
     1    24    25    1
     2    25    12    1
     3    12    13   ar
     4    13    14   ar
     5    14    18    1
     6    18    19    1
     7    19    20    1
     8    20    21    1
     9    21    22    1
    10    22    23    1
    11    14    15   ar
    12    15    16   ar
    13    16    17   ar
    14    17     1    1
    15     1     2   ar
    16     2     3   ar
    17     3     4   ar
    18     4    26    1
    19    28    26    1
    20    28    29    1
    21    29    35    1
    22    35    36   am
    23    35    37    2
    24    29    30    1
    25    30    31    1
    26    31    32    2
    27    33    32    1
    28    33    34    1
    29     4     5   ar
    30     5     6    1
    31     5     7   ar
    32     7     8   ar
    33     8     9   ar
    34     9    10   ar
    35    17    12   ar
    36    10     1   ar
    37    23    18    1
    38     9     3    1
    39    33    28    1
    40    34    30    1
    41    26    27    1
    42    36    38    1
    43    36    39    1
    44     8    11    1
@<TRIPOS>MOLECULE
*****
 39 44 0 0 0
SMALL
GASTEIGER

@<TRIPOS>ATOM
      1 C          64.4509   89.8701   14.4278 C.ar    1  UNL1        0.1669
      2 N          64.5241   88.4042   14.1181 N.ar    1  UNL1       -0.2221
      3 C          63.9026   87.6575   15.2610 C.ar    1  UNL1        0.1307
      4 C          63.6940   86.1927   15.5077 C.ar    1  UNL1        0.0777
      5 C          63.0280   85.7323   16.7706 C.ar    1  UNL1        0.0893
      6 CL         62.8194   84.2675   17.0174 Cl      1  UNL1       -0.0794
      7 C          62.5707   86.7366   17.7864 C.ar    1  UNL1        0.0863
      8 N          62.7793   88.2014   17.5396 N.ar    1  UNL1       -0.3354
      9 C          63.4452   88.6618   16.2769 C.ar    1  UNL1        0.1613
     10 N          63.7841   90.0293   15.7620 N.ar    1  UNL1       -0.2080
     11 H          62.4791   88.8606   18.2064 H       1  UNL1        0.1675
     12 C          64.2856   91.2707   12.2458 C.ar    1  UNL1        0.1428
     13 C          64.7906   92.3823   11.3743 C.ar    1  UNL1        0.0515
     14 C          65.9657   93.2048   11.8133 C.ar    1  UNL1        0.0510
     15 C          66.6359   92.9157   13.1237 C.ar    1  UNL1        0.0148
     16 C          66.1309   91.8041   13.9952 C.ar    1  UNL1        0.0074
     17 C          64.9558   90.9816   13.5563 C.ar    1  UNL1        0.0698
     18 N          66.4706   94.3163   10.9417 N.pl3   1  UNL1       -0.3027
     19 C          66.2416   95.7443   11.3396 C.3     1  UNL1        0.1231
     20 C          66.7465   96.8558   10.4681 C.3     1  UNL1        0.1636
     21 O          67.4804   96.5394    9.1988 O.3     1  UNL1       -0.3501
     22 C          67.7094   95.1114    8.8009 C.3     1  UNL1        0.1636
     23 C          67.2045   93.9998    9.6724 C.3     1  UNL1        0.1231
     24 C          62.6081   90.5506   10.3972 C.3     1  UNL1        0.2525
     25 O          63.1106   90.4483   11.8068 O.3     1  UNL1       -0.4713
     26 N          64.1513   85.1883   14.4918 N.pl3   1  UNL1       -0.3313
     27 H          64.9316   84.6182   14.6799 H       1  UNL1        0.1469
     28 C          63.4198   85.0525   13.1894 C.3     1  UNL1        0.0819
     29 C          63.0056   83.7649   12.5410 C.3     1  UNL1        0.0983
     30 C          62.3038   84.0970   11.2575 C.3     1  UNL1        0.0323
     31 C          61.8580   85.2249   10.3748 C.2     1  UNL1       -0.0304
     32 C          62.2722   86.5125   11.0233 C.2     1  UNL1       -0.0294
     33 C          62.9740   86.1804   12.3067 C.3     1  UNL1        0.0404
     34 C          62.9936   84.6876   12.4515 C.3     1  UNL1        0.0109
     35 C          63.2503   82.3870   13.0811 C.2     1  UNL1        0.2208
     36 N          63.0278   81.1884   12.2072 N.am    1  UNL1       -0.3288
     37 O          63.7174   82.2078   14.4952 O.2     1  UNL1       -0.2753
     38 H          62.7213   81.3061   11.2790 H       1  UNL1        0.1449
     39 H          63.1884   80.2841   12.5617 H       1  UNL1        0.1449
@<TRIPOS>BOND
     1    24    25    1
     2    25    12    1
     3    12    13   ar
     4    13    14   ar
     5    14    18    1
     6    18    19    1
     7    19    20    1
     8    20    21    1
     9    21    22    1
    10    22    23    1
    11    14    15   ar
    12    15    16   ar
    13    16    17   ar
    14    17     1    1
    15     1     2   ar
    16     2     3   ar
    17     3     4   ar
    18     4    26    1
    19    28    26    1
    20    28    29    1
    21    29    35    1
    22    35    36   am
    23    35    37    2
    24    29    30    1
    25    30    31    1
    26    31    32    2
    27    33    32    1
    28    33    34    1
    29     4     5   ar
    30     5     6    1
    31     5     7   ar
    32     7     8   ar
    33     8     9   ar
    34     9    10   ar
    35    17    12   ar
    36    10     1   ar
    37    23    18    1
    38     9     3    1
    39    33    28    1
    40    34    30    1
    41    26    27    1
    42    36    38    1
    43    36    39    1
    44     8    11    1
@<TRIPOS>MOLECULE
*****
 39 44 0 0 0
SMALL
GASTEIGER

@<TRIPOS>ATOM
      1 C          64.3670   89.9415   14.0073 C.ar    1  UNL1        0.1669
      2 N          64.6333   88.4856   13.7637 N.ar    1  UNL1       -0.2221
      3 C          64.0359   87.7089   14.8994 C.ar    1  UNL1        0.1307
      4 C          63.9884   86.2390   15.1948 C.ar    1  UNL1        0.0777
      5 C          63.3055   85.7451   16.4356 C.ar    1  UNL1        0.0893
      6 CL         63.2580   84.2751   16.7310 Cl      1  UNL1       -0.0794
      7 C          62.6700   86.7209   17.3810 C.ar    1  UNL1        0.0863
      8 N          62.7175   88.1908   17.0856 N.ar    1  UNL1       -0.3354
      9 C          63.4004   88.6847   15.8449 C.ar    1  UNL1        0.1613
     10 N          63.6051   90.0646   15.2935 N.ar    1  UNL1       -0.2080
     11 H          62.3004   88.8313   17.7062 H       1  UNL1        0.1675
     12 C          65.7690   92.0945   13.6209 C.ar    1  UNL1        0.1428
     13 C          66.1906   93.2283   12.7339 C.ar    1  UNL1        0.0515
     14 C          65.6320   93.3430   11.3465 C.ar    1  UNL1        0.0510
     15 C          64.6518   92.3239   10.8460 C.ar    1  UNL1        0.0148
     16 C          64.2301   91.1901   11.7330 C.ar    1  UNL1        0.0074
     17 C          64.7887   91.0754   13.1204 C.ar    1  UNL1        0.0698
     18 N          66.0537   94.4769   10.4596 N.pl3   1  UNL1       -0.3027
     19 C          67.3085   94.3654    9.6453 C.3     1  UNL1        0.1231
     20 C          67.7302   95.4992    8.7584 C.3     1  UNL1        0.1636
     21 O          66.8972   96.7444    8.6858 O.3     1  UNL1       -0.3501
     22 C          65.6423   96.8560    9.5001 C.3     1  UNL1        0.1636
     23 C          65.2207   95.7221   10.3870 C.3     1  UNL1        0.1231
     24 C          67.7796   91.6606   15.2081 C.3     1  UNL1        0.2525
     25 O          66.3276   91.9798   15.0082 O.3     1  UNL1       -0.4713
     26 N          64.6239   85.2630   14.2494 N.pl3   1  UNL1       -0.3313
     27 H          65.5688   85.3691   13.9940 H       1  UNL1        0.1469
     28 C          63.8198   84.1256   13.6931 C.3     1  UNL1        0.0819
     29 C          62.9418   84.1779   12.4780 C.3     1  UNL1        0.0983
     30 C          62.3318   82.8207   12.2882 C.3     1  UNL1        0.0323
     31 C          62.2644   81.4313   12.8493 C.2     1  UNL1       -0.0304
     32 C          63.1423   81.3790   14.0644 C.2     1  UNL1       -0.0294
     33 C          63.7523   82.7361   14.2543 C.3     1  UNL1        0.0404
     34 C          63.2514   83.6272   13.1565 C.3     1  UNL1        0.0109
     35 C          62.7139   85.3768   11.6058 C.2     1  UNL1        0.2208
     36 N          62.7729   85.2406   10.1132 N.am    1  UNL1       -0.3288
     37 O          62.4270   86.7120   12.2263 O.2     1  UNL1       -0.2753
     38 H          62.9612   84.3642    9.7060 H       1  UNL1        0.1449
     39 H          62.6233   86.0275    9.5408 H       1  UNL1        0.1449
@<TRIPOS>BOND
     1    24    25    1
     2    25    12    1
     3    12    13   ar
     4    13    14   ar
     5    14    18    1
     6    18    19    1
     7    19    20    1
     8    20    21    1
     9    21    22    1
    10    22    23    1
    11    14    15   ar
    12    15    16   ar
    13    16    17   ar
    14    17     1    1
    15     1     2   ar
    16     2     3   ar
    17     3     4   ar
    18     4    26    1
    19    28    26    1
    20    28    29    1
    21    29    35    1
    22    35    36   am
    23    35    37    2
    24    29    30    1
    25    30    31    1
    26    31    32    2
    27    33    32    1
    28    33    34    1
    29     4     5   ar
    30     5     6    1
    31     5     7   ar
    32     7     8   ar
    33     8     9   ar
    34     9    10   ar
    35    17    12   ar
    36    10     1   ar
    37    23    18    1
    38     9     3    1
    39    33    28    1
    40    34    30    1
    41    26    27    1
    42    36    38    1
    43    36    39    1
    44     8    11    1
@<TRIPOS>MOLECULE
*****
 39 44 0 0 0
SMALL
GASTEIGER

@<TRIPOS>ATOM
      1 C          61.6446   86.3211   10.3309 C.ar    1  UNL1        0.1669
      2 N          62.5349   86.7179   11.4710 N.ar    1  UNL1       -0.2221
      3 C          62.9341   85.4710   12.2030 C.ar    1  UNL1        0.1307
      4 C          63.8005   85.2479   13.4070 C.ar    1  UNL1        0.0777
      5 C          64.0233   83.8572   13.9232 C.ar    1  UNL1        0.0893
      6 CL         64.8898   83.6340   15.1273 Cl      1  UNL1       -0.0794
      7 C          63.3798   82.6898   13.2356 C.ar    1  UNL1        0.0863
      8 N          62.5134   82.9130   12.0316 N.ar    1  UNL1       -0.3354
      9 C          62.2905   84.3036   11.5153 C.ar    1  UNL1        0.1613
     10 N          61.4936   84.8289   10.3583 N.ar    1  UNL1       -0.2080
     11 H          62.0910   82.1467   11.5803 H       1  UNL1        0.1675
     12 C          61.1646   88.7362    9.5023 C.ar    1  UNL1        0.1428
     13 C          60.5356   89.6679    8.5091 C.ar    1  UNL1        0.0515
     14 C          59.7580   89.1161    7.3512 C.ar    1  UNL1        0.0510
     15 C          59.6092   87.6326    7.1865 C.ar    1  UNL1        0.0148
     16 C          60.2381   86.7010    8.1797 C.ar    1  UNL1        0.0074
     17 C          61.0158   87.2528    9.3376 C.ar    1  UNL1        0.0698
     18 N          59.1291   90.0478    6.3580 N.pl3   1  UNL1       -0.3027
     19 C          57.6375   90.0840    6.2037 C.3     1  UNL1        0.1231
     20 C          57.0086   91.0157    5.2105 C.3     1  UNL1        0.1636
     21 O          57.8713   91.9112    4.3716 O.3     1  UNL1       -0.3501
     22 C          59.3629   91.8750    4.5258 C.3     1  UNL1        0.1636
     23 C          59.9918   90.9433    5.5190 C.3     1  UNL1        0.1231
     24 C          62.8075   90.4990   10.4736 C.3     1  UNL1        0.2525
     25 O          61.9422   89.2881   10.6602 O.3     1  UNL1       -0.4713
     26 N          64.4441   86.4153   14.0947 N.pl3   1  UNL1       -0.3313
     27 H          65.2463   86.8340   13.7069 H       1  UNL1        0.1469
     28 C          63.8655   86.9447   15.3733 C.3     1  UNL1        0.0819
     29 C          63.5754   88.3840   15.6803 C.3     1  UNL1        0.0983
     30 C          63.0060   88.4566   17.0662 C.3     1  UNL1        0.0323
     31 C          62.6160   87.6398   18.2623 C.2     1  UNL1       -0.0304
     32 C          62.9062   86.2005   17.9553 C.2     1  UNL1       -0.0294
     33 C          63.4755   86.1278   16.5694 C.3     1  UNL1        0.0404
     34 C          63.5373   87.5222   16.0199 C.3     1  UNL1        0.0109
     35 C          63.8129   89.5465   14.7626 C.2     1  UNL1        0.2208
     36 N          62.6602   90.1818   14.0432 N.am    1  UNL1       -0.3288
     37 O          65.2031   90.0737   14.5644 O.2     1  UNL1       -0.2753
     38 H          61.7477   89.8358   14.1733 H       1  UNL1        0.1449
     39 H          62.8160   90.9448   13.4409 H       1  UNL1        0.1449
@<TRIPOS>BOND
     1    24    25    1
     2    25    12    1
     3    12    13   ar
     4    13    14   ar
     5    14    18    1
     6    18    19    1
     7    19    20    1
     8    20    21    1
     9    21    22    1
    10    22    23    1
    11    14    15   ar
    12    15    16   ar
    13    16    17   ar
    14    17     1    1
    15     1     2   ar
    16     2     3   ar
    17     3     4   ar
    18     4    26    1
    19    28    26    1
    20    28    29    1
    21    29    35    1
    22    35    36   am
    23    35    37    2
    24    29    30    1
    25    30    31    1
    26    31    32    2
    27    33    32    1
    28    33    34    1
    29     4     5   ar
    30     5     6    1
    31     5     7   ar
    32     7     8   ar
    33     8     9   ar
    34     9    10   ar
    35    17    12   ar
    36    10     1   ar
    37    23    18    1
    38     9     3    1
    39    33    28    1
    40    34    30    1
    41    26    27    1
    42    36    38    1
    43    36    39    1
    44     8    11    1
@<TRIPOS>MOLECULE
*****
 39 44 0 0 0
SMALL
GASTEIGER

@<TRIPOS>ATOM
      1 C          63.2619   90.2964   11.5181 C.ar    1  UNL1        0.1669
      2 N          62.6902   88.9162   11.6523 N.ar    1  UNL1       -0.2221
      3 C          61.6472   88.7411   10.5885 C.ar    1  UNL1        0.1307
      4 C          60.7544   87.5877   10.2384 C.ar    1  UNL1        0.0777
      5 C          59.7887   87.7064    9.0967 C.ar    1  UNL1        0.0893
      6 CL         58.8959   86.5530    8.7465 Cl      1  UNL1       -0.0794
      7 C          59.7159   88.9784    8.3052 C.ar    1  UNL1        0.0863
      8 N          60.6086   90.1318    8.6553 N.ar    1  UNL1       -0.3354
      9 C          61.5743   90.0132    9.7970 C.ar    1  UNL1        0.1613
     10 N          62.5722   90.9744   10.3715 N.ar    1  UNL1       -0.2080
     11 H          60.5608   90.9667    8.1358 H       1  UNL1        0.1675
     12 C          64.4615   90.4793   13.8154 C.ar    1  UNL1        0.1428
     13 C          65.5346   91.0768   14.6766 C.ar    1  UNL1        0.0515
     14 C          66.4809   92.0888   14.1019 C.ar    1  UNL1        0.0510
     15 C          66.3542   92.5034   12.6659 C.ar    1  UNL1        0.0148
     16 C          65.2812   91.9059   11.8047 C.ar    1  UNL1        0.0074
     17 C          64.3348   90.8939   12.3794 C.ar    1  UNL1        0.0698
     18 N          67.5539   92.6862   14.9632 N.pl3   1  UNL1       -0.3027
     19 C          68.4329   91.7965   15.7913 C.3     1  UNL1        0.1231
     20 C          69.5059   92.3940   16.6526 C.3     1  UNL1        0.1636
     21 O          69.6998   93.8809   16.6858 O.3     1  UNL1       -0.3501
     22 C          68.8207   94.7707   15.8576 C.3     1  UNL1        0.1636
     23 C          67.7478   94.1732   14.9964 C.3     1  UNL1        0.1231
     24 C          63.2357   89.4540   15.8638 C.3     1  UNL1        0.2525
     25 O          63.5153   89.4673   14.3902 O.3     1  UNL1       -0.4713
     26 N          60.8273   86.3156   11.0299 N.pl3   1  UNL1       -0.3313
     27 H          60.1130   86.0922   11.6696 H       1  UNL1        0.1469
     28 C          61.9883   85.3838   10.8468 C.3     1  UNL1        0.0819
     29 C          62.9233   84.9180   11.9233 C.3     1  UNL1        0.0983
     30 C          63.9311   84.0004   11.2968 C.3     1  UNL1        0.0323
     31 C          64.3611   83.3708   10.0050 C.2     1  UNL1       -0.0304
     32 C          63.4262   83.8366    8.9285 C.2     1  UNL1       -0.0294
     33 C          62.4183   84.7541    9.5550 C.3     1  UNL1        0.0404
     34 C          62.7304   84.8554   11.0187 C.3     1  UNL1        0.0109
     35 C          62.8613   85.3022   13.3719 C.2     1  UNL1        0.2208
     36 N          63.6248   86.4957   13.8646 N.am    1  UNL1       -0.3288
     37 O          62.0359   84.4930   14.3279 O.2     1  UNL1       -0.2753
     38 H          64.1665   87.0268   13.2372 H       1  UNL1        0.1449
     39 H          63.5841   86.7479   14.8154 H       1  UNL1        0.1449
@<TRIPOS>BOND
     1    24    25    1
     2    25    12    1
     3    12    13   ar
     4    13    14   ar
     5    14    18    1
     6    18    19    1
     7    19    20    1
     8    20    21    1
     9    21    22    1
    10    22    23    1
    11    14    15   ar
    12    15    16   ar
    13    16    17   ar
    14    17     1    1
    15     1     2   ar
    16     2     3   ar
    17     3     4   ar
    18     4    26    1
    19    28    26    1
    20    28    29    1
    21    29    35    1
    22    35    36   am
    23    35    37    2
    24    29    30    1
    25    30    31    1
    26    31    32    2
    27    33    32    1
    28    33    34    1
    29     4     5   ar
    30     5     6    1
    31     5     7   ar
    32     7     8   ar
    33     8     9   ar
    34     9    10   ar
    35    17    12   ar
    36    10     1   ar
    37    23    18    1
    38     9     3    1
    39    33    28    1
    40    34    30    1
    41    26    27    1
    42    36    38    1
    43    36    39    1
    44     8    11    1
@<TRIPOS>MOLECULE
*****
 39 44 0 0 0
SMALL
GASTEIGER

@<TRIPOS>ATOM
      1 C          63.9377   90.3518   12.9085 C.ar    1  UNL1        0.1669
      2 N          65.1422   91.1938   12.6082 N.ar    1  UNL1       -0.2221
      3 C          65.6053   91.8150   13.8926 C.ar    1  UNL1        0.1307
      4 C          66.7446   92.7385   14.2072 C.ar    1  UNL1        0.0777
      5 C          66.9656   93.2041   15.6160 C.ar    1  UNL1        0.0893
      6 CL         68.1049   94.1277   15.9306 Cl      1  UNL1       -0.0794
      7 C          66.0474   92.7460   16.7099 C.ar    1  UNL1        0.0863
      8 N          64.9081   91.8225   16.3953 N.ar    1  UNL1       -0.3354
      9 C          64.6871   91.3569   14.9866 C.ar    1  UNL1        0.1613
     10 N          63.6564   90.4526   14.3784 N.ar    1  UNL1       -0.2080
     11 H          64.3054   91.5218   17.1134 H       1  UNL1        0.1675
     12 C          62.9951   88.0697   12.0999 C.ar    1  UNL1        0.1428
     13 C          62.2097   87.2678   11.1049 C.ar    1  UNL1        0.0515
     14 C          61.5815   87.9458    9.9235 C.ar    1  UNL1        0.0510
     15 C          61.7387   89.4258    9.7371 C.ar    1  UNL1        0.0148
     16 C          62.5241   90.2278   10.7322 C.ar    1  UNL1        0.0074
     17 C          63.1523   89.5498   11.9135 C.ar    1  UNL1        0.0698
     18 N          60.7961   87.1438    8.9286 N.pl3   1  UNL1       -0.3027
     19 C          61.4466   86.0024    8.2046 C.3     1  UNL1        0.1231
     20 C          60.6612   85.2004    7.2096 C.3     1  UNL1        0.1636
     21 O          59.2255   85.5397    6.9386 O.3     1  UNL1       -0.3501
     22 C          58.5750   86.6811    7.6626 C.3     1  UNL1        0.1636
     23 C          59.3604   87.4832    8.6576 C.3     1  UNL1        0.1231
     24 C          63.6165   85.8948   13.3780 C.3     1  UNL1        0.2525
     25 O          63.6233   87.3916   13.2812 O.3     1  UNL1       -0.4713
     26 N          67.6630   93.1966   13.1132 N.pl3   1  UNL1       -0.3313
     27 H          68.6299   93.0230   13.1772 H       1  UNL1        0.1469
     28 C          67.1081   93.9193   11.9216 C.3     1  UNL1        0.0819
     29 C          67.3219   93.5447   10.4850 C.3     1  UNL1        0.0983
     30 C          66.5879   94.5373    9.6330 C.3     1  UNL1        0.0323
     31 C          65.7218   95.7615    9.6688 C.2     1  UNL1       -0.0304
     32 C          65.5079   96.1361   11.1055 C.2     1  UNL1       -0.0294
     33 C          66.2419   95.1434   11.9575 C.3     1  UNL1        0.0404
     34 C          66.9094   94.1554   11.0475 C.3     1  UNL1        0.0109
     35 C          68.1282   92.3816    9.9877 C.2     1  UNL1        0.2208
     36 N          68.5824   92.3402    8.5587 N.am    1  UNL1       -0.3288
     37 O          68.4802   91.2600   10.9193 O.2     1  UNL1       -0.2753
     38 H          68.3513   93.0764    7.9472 H       1  UNL1        0.1449
     39 H          69.1115   91.5769    8.2323 H       1  UNL1        0.1449
@<TRIPOS>BOND
     1    24    25    1
     2    25    12    1
     3    12    13   ar
     4    13    14   ar
     5    14    18    1
     6    18    19    1
     7    19    20    1
     8    20    21    1
     9    21    22    1
    10    22    23    1
    11    14    15   ar
    12    15    16   ar
    13    16    17   ar
    14    17     1    1
    15     1     2   ar
    16     2     3   ar
    17     3     4   ar
    18     4    26    1
    19    28    26    1
    20    28    29    1
    21    29    35    1
    22    35    36   am
    23    35    37    2
    24    29    30    1
    25    30    31    1
    26    31    32    2
    27    33    32    1
    28    33    34    1
    29     4     5   ar
    30     5     6    1
    31     5     7   ar
    32     7     8   ar
    33     8     9   ar
    34     9    10   ar
    35    17    12   ar
    36    10     1   ar
    37    23    18    1
    38     9     3    1
    39    33    28    1
    40    34    30    1
    41    26    27    1
    42    36    38    1
    43    36    39    1
    44     8    11    1
@<TRIPOS>MOLECULE
*****
 39 44 0 0 0
SMALL
GASTEIGER

@<TRIPOS>ATOM
      1 C          64.2833   89.1625   13.7501 C.ar    1  UNL1        0.1669
      2 N          63.8580   87.9302   13.0080 N.ar    1  UNL1       -0.2221
      3 C          63.4560   86.8966   14.0180 C.ar    1  UNL1        0.1307
      4 C          62.9518   85.4917   13.8700 C.ar    1  UNL1        0.0777
      5 C          62.6245   84.6801   15.0884 C.ar    1  UNL1        0.0893
      6 CL         62.1202   83.2751   14.9405 Cl      1  UNL1       -0.0794
      7 C          62.8014   85.2735   16.4546 C.ar    1  UNL1        0.0863
      8 N          63.3056   86.6785   16.6025 N.ar    1  UNL1       -0.3354
      9 C          63.6329   87.4900   15.3842 C.ar    1  UNL1        0.1613
     10 N          64.1442   88.8904   15.2186 N.ar    1  UNL1       -0.2080
     11 H          63.4217   87.0679   17.4992 H       1  UNL1        0.1675
     12 C          64.0018   91.0585   11.9963 C.ar    1  UNL1        0.1428
     13 C          64.4820   92.3382   11.3783 C.ar    1  UNL1        0.0515
     14 C          65.7237   93.0016   11.8962 C.ar    1  UNL1        0.0510
     15 C          66.4852   92.3853   13.0320 C.ar    1  UNL1        0.0148
     16 C          66.0051   91.1055   13.6500 C.ar    1  UNL1        0.0074
     17 C          64.7634   90.4422   13.1321 C.ar    1  UNL1        0.0698
     18 N          66.2038   94.2813   11.2782 N.pl3   1  UNL1       -0.3027
     19 C          66.0549   95.5753   12.0220 C.3     1  UNL1        0.1231
     20 C          66.5350   96.8550   11.4040 C.3     1  UNL1        0.1636
     21 O          67.1640   96.8407   10.0424 O.3     1  UNL1       -0.3501
     22 C          67.3128   95.5466    9.2985 C.3     1  UNL1        0.1636
     23 C          66.8327   94.2669    9.9165 C.3     1  UNL1        0.1231
     24 C          62.7155   89.8828   10.0693 C.3     1  UNL1        0.2525
     25 O          62.7602   90.3952   11.4783 O.3     1  UNL1       -0.4713
     26 N          62.7749   84.8982   12.5038 N.pl3   1  UNL1       -0.3313
     27 H          63.1456   84.0088   12.3017 H       1  UNL1        0.1469
     28 C          62.0332   85.6597   11.4456 C.3     1  UNL1        0.0819
     29 C          62.2054   85.5046    9.9636 C.3     1  UNL1        0.0983
     30 C          61.2678   86.4591    9.2856 C.3     1  UNL1        0.0323
     31 C          60.2237   87.5095    9.5235 C.2     1  UNL1       -0.0304
     32 C          60.0515   87.6647   11.0054 C.2     1  UNL1       -0.0294
     33 C          60.9892   86.7101   11.6835 C.3     1  UNL1        0.0404
     34 C          61.7409   85.9650   10.6206 C.3     1  UNL1        0.0109
     35 C          63.1495   84.5606    9.2797 C.2     1  UNL1        0.2208
     36 N          63.2828   84.5844    7.7858 N.am    1  UNL1       -0.3288
     37 O          63.9603   83.5929   10.0897 O.2     1  UNL1       -0.2753
     38 H          62.7506   85.2196    7.2542 H       1  UNL1        0.1449
     39 H          63.9024   83.9649    7.3370 H       1  UNL1        0.1449
@<TRIPOS>BOND
     1    24    25    1
     2    25    12    1
     3    12    13   ar
     4    13    14   ar
     5    14    18    1
     6    18    19    1
     7    19    20    1
     8    20    21    1
     9    21    22    1
    10    22    23    1
    11    14    15   ar
    12    15    16   ar
    13    16    17   ar
    14    17     1    1
    15     1     2   ar
    16     2     3   ar
    17     3     4   ar
    18     4    26    1
    19    28    26    1
    20    28    29    1
    21    29    35    1
    22    35    36   am
    23    35    37    2
    24    29    30    1
    25    30    31    1
    26    31    32    2
    27    33    32    1
    28    33    34    1
    29     4     5   ar
    30     5     6    1
    31     5     7   ar
    32     7     8   ar
    33     8     9   ar
    34     9    10   ar
    35    17    12   ar
    36    10     1   ar
    37    23    18    1
    38     9     3    1
    39    33    28    1
    40    34    30    1
    41    26    27    1
    42    36    38    1
    43    36    39    1
    44     8    11    1
@<TRIPOS>MOLECULE
*****
 39 44 0 0 0
SMALL
GASTEIGER

@<TRIPOS>ATOM
      1 C          64.2727   89.2178   13.7028 C.ar    1  UNL1        0.1669
      2 N          63.5138   88.1009   13.0495 N.ar    1  UNL1       -0.2221
      3 C          63.2665   87.0421   14.0828 C.ar    1  UNL1        0.1307
      4 C          62.5678   85.7166   14.0142 C.ar    1  UNL1        0.0777
      5 C          62.4750   84.8535   15.2376 C.ar    1  UNL1        0.0893
      6 CL         61.7762   83.5279   15.1690 Cl      1  UNL1       -0.0794
      7 C          63.0809   85.3160   16.5294 C.ar    1  UNL1        0.0863
      8 N          63.7796   86.6415   16.5980 N.ar    1  UNL1       -0.3354
      9 C          63.8724   87.5046   15.3747 C.ar    1  UNL1        0.1613
     10 N          64.4943   88.8492   15.1398 N.ar    1  UNL1       -0.2080
     11 H          64.1773   86.9451   17.4459 H       1  UNL1        0.1675
     12 C          64.0720   90.9408   11.7686 C.ar    1  UNL1        0.1428
     13 C          64.5291   92.2045   11.1020 C.ar    1  UNL1        0.0515
     14 C          65.6437   93.0086   11.7027 C.ar    1  UNL1        0.0510
     15 C          66.3014   92.5492   12.9702 C.ar    1  UNL1        0.0148
     16 C          65.8443   91.2855   13.6368 C.ar    1  UNL1        0.0074
     17 C          64.7297   90.4814   13.0361 C.ar    1  UNL1        0.0698
     18 N          66.1007   94.2722   11.0361 N.pl3   1  UNL1       -0.3027
     19 C          66.7380   94.2161    9.6794 C.3     1  UNL1        0.1231
     20 C          67.1950   95.4797    9.0127 C.3     1  UNL1        0.1636
     21 O          67.0148   96.7993    9.7026 O.3     1  UNL1       -0.3501
     22 C          66.3775   96.8554   11.0594 C.3     1  UNL1        0.1636
     23 C          65.9205   95.5918   11.7261 C.3     1  UNL1        0.1231
     24 C          62.0876   90.7382   10.1040 C.3     1  UNL1        0.2525
     25 O          62.9574   90.1367   11.1678 O.3     1  UNL1       -0.4713
     26 N          61.9618   85.2540   12.7223 N.pl3   1  UNL1       -0.3313
     27 H          61.0252   85.4725   12.5118 H       1  UNL1        0.1469
     28 C          62.7829   84.4586   11.7512 C.3     1  UNL1        0.0819
     29 C          62.9488   84.7520   10.2895 C.3     1  UNL1        0.0983
     30 C          63.8507   83.7049    9.7061 C.3     1  UNL1        0.0323
     31 C          64.6499   82.4765   10.0260 C.2     1  UNL1       -0.0304
     32 C          64.4839   82.1832   11.4876 C.2     1  UNL1       -0.0294
     33 C          63.5821   83.2303   12.0711 C.3     1  UNL1        0.0404
     34 C          63.1907   84.1707   10.9701 C.3     1  UNL1        0.0109
     35 C          62.3229   85.8922    9.5424 C.2     1  UNL1        0.2208
     36 N          62.3815   87.2808   10.1067 N.am    1  UNL1       -0.3288
     37 O          61.6384   85.6438    8.2310 O.2     1  UNL1       -0.2753
     38 H          62.8308   87.4438   10.9674 H       1  UNL1        0.1449
     39 H          61.9707   88.0291    9.6164 H       1  UNL1        0.1449
@<TRIPOS>BOND
     1    24    25    1
     2    25    12    1
     3    12    13   ar
     4    13    14   ar
     5    14    18    1
     6    18    19    1
     7    19    20    1
     8    20    21    1
     9    21    22    1
    10    22    23    1
    11    14    15   ar
    12    15    16   ar
    13    16    17   ar
    14    17     1    1
    15     1     2   ar
    16     2     3   ar
    17     3     4   ar
    18     4    26    1
    19    28    26    1
    20    28    29    1
    21    29    35    1
    22    35    36   am
    23    35    37    2
    24    29    30    1
    25    30    31    1
    26    31    32    2
    27    33    32    1
    28    33    34    1
    29     4     5   ar
    30     5     6    1
    31     5     7   ar
    32     7     8   ar
    33     8     9   ar
    34     9    10   ar
    35    17    12   ar
    36    10     1   ar
    37    23    18    1
    38     9     3    1
    39    33    28    1
    40    34    30    1
    41    26    27    1
    42    36    38    1
    43    36    39    1
    44     8    11    1
@<TRIPOS>MOLECULE
*****
 39 44 0 0 0
SMALL
GASTEIGER

@<TRIPOS>ATOM
      1 C          64.7126   89.3373   13.7741 C.ar    1  UNL1        0.1669
      2 N          64.7154   90.3461   12.6640 N.ar    1  UNL1       -0.2221
      3 C          65.3024   91.6196   13.1965 C.ar    1  UNL1        0.1307
      4 C          65.5556   92.9525   12.5567 C.ar    1  UNL1        0.0777
      5 C          66.1688   94.0637   13.3563 C.ar    1  UNL1        0.0893
      6 CL         66.4220   95.3967   12.7165 Cl      1  UNL1       -0.0794
      7 C          66.5288   93.8420   14.7954 C.ar    1  UNL1        0.0863
      8 N          66.2756   92.5091   15.4351 N.ar    1  UNL1       -0.3354
      9 C          65.6624   91.3979   14.6357 C.ar    1  UNL1        0.1613
     10 N          65.2979   89.9874   14.9927 N.ar    1  UNL1       -0.2080
     11 H          66.5119   92.3636   16.3797 H       1  UNL1        0.1675
     12 C          63.2836   87.5307   12.5724 C.ar    1  UNL1        0.1428
     13 C          62.7834   86.1195   12.4803 C.ar    1  UNL1        0.0515
     14 C          63.2120   85.1038   13.4975 C.ar    1  UNL1        0.0510
     15 C          64.1408   85.4993   14.6070 C.ar    1  UNL1        0.0148
     16 C          64.6410   86.9105   14.6991 C.ar    1  UNL1        0.0074
     17 C          64.2124   87.9262   13.6819 C.ar    1  UNL1        0.0698
     18 N          62.7117   83.6927   13.4053 N.pl3   1  UNL1       -0.3027
     19 C          62.8326   82.9371   12.1152 C.3     1  UNL1        0.1231
     20 C          62.3323   81.5259   12.0230 C.3     1  UNL1        0.1636
     21 O          61.7114   80.8705   13.2208 O.3     1  UNL1       -0.3501
     22 C          61.5905   81.6262   14.5109 C.3     1  UNL1        0.1636
     23 C          62.0908   83.0373   14.6031 C.3     1  UNL1        0.1231
     24 C          61.5777   88.3517   10.7932 C.3     1  UNL1        0.2525
     25 O          62.8550   88.5462   11.5552 O.3     1  UNL1       -0.4713
     26 N          65.1956   93.1742   11.1175 N.pl3   1  UNL1       -0.3313
     27 H          64.4203   92.7100   10.7269 H       1  UNL1        0.1469
     28 C          66.0169   94.1033   10.2736 C.3     1  UNL1        0.0819
     29 C          67.3535   93.7942    9.6672 C.3     1  UNL1        0.0983
     30 C          67.8085   95.0045    8.9066 C.3     1  UNL1        0.0323
     31 C          67.4373   96.4057    8.5209 C.2     1  UNL1       -0.0304
     32 C          66.1007   96.7148    9.1274 C.2     1  UNL1       -0.0294
     33 C          65.6457   95.5045    9.8879 C.3     1  UNL1        0.0404
     34 C          66.7012   94.4475    9.7515 C.3     1  UNL1        0.0109
     35 C          68.1036   92.5018    9.7982 C.2     1  UNL1        0.2208
     36 N          68.5637   92.0352   11.1475 N.am    1  UNL1       -0.3288
     37 O          68.3936   91.6761    8.5800 O.2     1  UNL1       -0.2753
     38 H          68.3734   92.5771   11.9470 H       1  UNL1        0.1449
     39 H          69.0560   91.1869   11.2335 H       1  UNL1        0.1449
@<TRIPOS>BOND
     1    24    25    1
     2    25    12    1
     3    12    13   ar
     4    13    14   ar
     5    14    18    1
     6    18    19    1
     7    19    20    1
     8    20    21    1
     9    21    22    1
    10    22    23    1
    11    14    15   ar
    12    15    16   ar
    13    16    17   ar
    14    17     1    1
    15     1     2   ar
    16     2     3   ar
    17     3     4   ar
    18     4    26    1
    19    28    26    1
    20    28    29    1
    21    29    35    1
    22    35    36   am
    23    35    37    2
    24    29    30    1
    25    30    31    1
    26    31    32    2
    27    33    32    1
    28    33    34    1
    29     4     5   ar
    30     5     6    1
    31     5     7   ar
    32     7     8   ar
    33     8     9   ar
    34     9    10   ar
    35    17    12   ar
    36    10     1   ar
    37    23    18    1
    38     9     3    1
    39    33    28    1
    40    34    30    1
    41    26    27    1
    42    36    38    1
    43    36    39    1
    44     8    11    1
