@<TRIPOS>MOLECULE
*****
 33 37 0 0 0
SMALL
GASTEIGER

@<TRIPOS>ATOM
      1 N          62.8889   90.1389   12.8956 N.3     1  UNL1       -0.2679
      2 C          63.8984   91.1181   12.3742 C.3     1  UNL1        0.0978
      3 C          63.9717   91.4088   10.9045 C.3     1  UNL1        0.0224
      4 C          64.9813   92.3880   10.3830 C.3     1  UNL1        0.0065
      5 C          65.9176   93.0766   11.3313 C.3     1  UNL1        0.0277
      6 C          65.8443   92.7859   12.8010 C.ar    1  UNL1       -0.0073
      7 C          66.7806   93.4744   13.7493 C.ar    1  UNL1       -0.0015
      8 C          66.7073   93.1838   15.2190 C.ar    1  UNL1        0.0203
      9 C          65.6977   92.2046   15.7405 C.ar    1  UNL1        0.0985
     10 N          64.7615   91.5160   14.7922 N.ar    1  UNL1       -0.2471
     11 C          64.8347   91.8067   13.3224 C.ar    1  UNL1        0.0695
     12 C          63.2535   89.2108   14.0162 C.3     1  UNL1        0.0738
     13 C          64.1947   88.0693   13.7685 C.3     1  UNL1        0.0347
     14 C          64.3002   86.9542   14.7661 C.3     1  UNL1        0.0736
     15 C          61.9353   81.5820   13.5221 C.3     1  UNL1        0.0897
     16 N          62.5265   82.9251   13.8331 N.3     1  UNL1       -0.2691
     17 C          62.8347   83.8844   12.7219 C.3     1  UNL1        0.0897
     18 C          63.4260   85.2275   13.0329 C.3     1  UNL1        0.0897
     19 N          63.7090   85.6112   14.4551 N.3     1  UNL1       -0.2703
     20 C          63.4007   84.6519   15.5663 C.3     1  UNL1        0.0897
     21 C          62.8095   83.3089   15.2553 C.3     1  UNL1        0.0897
     22 C          61.5147   90.0878   12.2966 C.3     1  UNL1        0.0886
     23 C          61.2313   89.1664   11.1473 C.3     1  UNL1        0.0748
     24 C          62.2173   88.0963   10.7832 C.3     1  UNL1        0.0432
     25 C          61.9339   87.1749    9.6339 C.ar    1  UNL1       -0.0234
     26 C          62.9200   86.1049    9.2697 C.ar    1  UNL1       -0.0045
     27 C          62.6366   85.1835    8.1205 C.ar    1  UNL1       -0.0003
     28 C          61.3671   85.3322    7.3355 C.ar    1  UNL1       -0.0003
     29 C          60.3810   86.4022    7.6996 C.ar    1  UNL1       -0.0032
     30 C          60.6644   87.3236    8.8488 C.ar    1  UNL1       -0.0103
     31 C          59.6784   88.3937    9.2131 C.3     1  UNL1        0.0953
     32 N          59.9618   89.3150   10.3623 N.3     1  UNL1       -0.2934
     33 H          59.1925   89.2067   11.0232 H       1  UNL1        0.1236
@<TRIPOS>BOND
     1    15    16    1
     2    16    17    1
     3    17    18    1
     4    18    19    1
     5    19    14    1
     6    14    13    1
     7    13    12    1
     8    12     1    1
     9     1    22    1
    10    23    22    1
    11    23    24    1
    12    24    25    1
    13    25    26   ar
    14    26    27   ar
    15    27    28   ar
    16    28    29   ar
    17    29    30   ar
    18    30    31    1
    19    31    32    1
    20     2     1    1
    21     2     3    1
    22     3     4    1
    23     4     5    1
    24     5     6    1
    25     6     7   ar
    26     7     8   ar
    27     8     9   ar
    28     9    10   ar
    29    10    11   ar
    30    19    20    1
    31    20    21    1
    32    21    16    1
    33    32    23    1
    34    11     2    1
    35    30    25   ar
    36    11     6   ar
    37    32    33    1
@<TRIPOS>MOLECULE
*****
 33 37 0 0 0
SMALL
GASTEIGER

@<TRIPOS>ATOM
      1 N          63.3844   88.9163   13.5819 N.3     1  UNL1       -0.2679
      2 C          62.9051   89.1197   12.1752 C.3     1  UNL1        0.0978
      3 C          62.8947   90.4956   11.5779 C.3     1  UNL1        0.0224
      4 C          62.4154   90.6989   10.1712 C.3     1  UNL1        0.0065
      5 C          61.9465   89.5264    9.3617 C.3     1  UNL1        0.0277
      6 C          61.9569   88.1505    9.9590 C.ar    1  UNL1       -0.0073
      7 C          61.4880   86.9779    9.1495 C.ar    1  UNL1       -0.0015
      8 C          61.4985   85.6020    9.7468 C.ar    1  UNL1        0.0203
      9 C          61.9778   85.3987   11.1535 C.ar    1  UNL1        0.0985
     10 N          62.4466   86.5712   11.9630 N.ar    1  UNL1       -0.2471
     11 C          62.4362   87.9472   11.3657 C.ar    1  UNL1        0.0695
     12 C          64.0788   87.6419   13.9609 C.3     1  UNL1        0.0738
     13 C          63.8780   87.0560   15.3271 C.3     1  UNL1        0.0347
     14 C          64.4162   85.6924   15.6448 C.3     1  UNL1        0.0736
     15 C          62.5494   80.9260   12.5150 C.3     1  UNL1        0.0897
     16 N          63.0161   82.1176   13.2975 N.3     1  UNL1       -0.2691
     17 C          62.2542   82.5638   14.5101 C.3     1  UNL1        0.0897
     18 C          62.7209   83.7555   15.2926 C.3     1  UNL1        0.0897
     19 N          63.9495   84.5008   14.8624 N.3     1  UNL1       -0.2703
     20 C          64.7114   84.0546   13.6497 C.3     1  UNL1        0.0897
     21 C          64.2447   82.8630   12.8673 C.3     1  UNL1        0.0897
     22 C          63.1693   89.9874   14.6098 C.3     1  UNL1        0.0886
     23 C          64.3151   90.8546   15.0404 C.3     1  UNL1        0.0748
     24 C          65.5993   90.8400   14.2655 C.3     1  UNL1        0.0432
     25 C          66.7451   91.7072   14.6961 C.ar    1  UNL1       -0.0234
     26 C          68.0293   91.6926   13.9212 C.ar    1  UNL1       -0.0045
     27 C          69.1749   92.5597   14.3518 C.ar    1  UNL1       -0.0003
     28 C          69.0363   93.4415   15.5573 C.ar    1  UNL1       -0.0003
     29 C          67.7521   93.4561   16.3322 C.ar    1  UNL1       -0.0032
     30 C          66.6065   92.5890   15.9016 C.ar    1  UNL1       -0.0103
     31 C          65.3222   92.6036   16.6765 C.3     1  UNL1        0.0953
     32 N          64.1765   91.7364   16.2459 N.3     1  UNL1       -0.2934
     33 H          63.3878   92.3579   16.0670 H       1  UNL1        0.1236
@<TRIPOS>BOND
     1    15    16    1
     2    16    17    1
     3    17    18    1
     4    18    19    1
     5    19    14    1
     6    14    13    1
     7    13    12    1
     8    12     1    1
     9     1    22    1
    10    23    22    1
    11    23    24    1
    12    24    25    1
    13    25    26   ar
    14    26    27   ar
    15    27    28   ar
    16    28    29   ar
    17    29    30   ar
    18    30    31    1
    19    31    32    1
    20     2     1    1
    21     2     3    1
    22     3     4    1
    23     4     5    1
    24     5     6    1
    25     6     7   ar
    26     7     8   ar
    27     8     9   ar
    28     9    10   ar
    29    10    11   ar
    30    19    20    1
    31    20    21    1
    32    21    16    1
    33    32    23    1
    34    11     2    1
    35    30    25   ar
    36    11     6   ar
    37    32    33    1
@<TRIPOS>MOLECULE
*****
 33 37 0 0 0
SMALL
GASTEIGER

@<TRIPOS>ATOM
      1 N          63.7826   89.9574   13.6104 N.3     1  UNL1       -0.2679
      2 C          64.7143   91.0947   13.9075 C.3     1  UNL1        0.0978
      3 C          65.2297   91.2974   15.3015 C.3     1  UNL1        0.0224
      4 C          66.1615   92.4347   15.5987 C.3     1  UNL1        0.0065
      5 C          66.5779   93.3693   14.5018 C.3     1  UNL1        0.0277
      6 C          66.0626   93.1665   13.1078 C.ar    1  UNL1       -0.0073
      7 C          66.4790   94.1011   12.0109 C.ar    1  UNL1       -0.0015
      8 C          65.9637   93.8984   10.6169 C.ar    1  UNL1        0.0203
      9 C          65.0319   92.7611   10.3197 C.ar    1  UNL1        0.0985
     10 N          64.6154   91.8265   11.4166 N.ar    1  UNL1       -0.2471
     11 C          65.1308   92.0292   12.8107 C.ar    1  UNL1        0.0695
     12 C          64.2932   88.5470   13.6211 C.3     1  UNL1        0.0738
     13 C          64.2525   87.7443   14.8877 C.3     1  UNL1        0.0347
     14 C          64.9531   86.4199   14.9590 C.3     1  UNL1        0.0736
     15 C          61.8635   81.3433   14.1331 C.3     1  UNL1        0.0897
     16 N          62.6359   82.6124   14.3396 N.3     1  UNL1       -0.2691
     17 C          63.8679   82.8813   13.5271 C.3     1  UNL1        0.0897
     18 C          64.6403   84.1505   13.7336 C.3     1  UNL1        0.0897
     19 N          64.1808   85.1508   14.7525 N.3     1  UNL1       -0.2703
     20 C          62.9488   84.8819   15.5650 C.3     1  UNL1        0.0897
     21 C          62.1764   83.6128   15.3585 C.3     1  UNL1        0.0897
     22 C          62.3401   90.2304   13.3025 C.3     1  UNL1        0.0886
     23 C          61.7244   89.6837   12.0486 C.3     1  UNL1        0.0748
     24 C          62.1994   88.3760   11.4882 C.3     1  UNL1        0.0432
     25 C          61.5836   87.8293   10.2344 C.ar    1  UNL1       -0.0234
     26 C          62.0586   86.5216    9.6740 C.ar    1  UNL1       -0.0045
     27 C          61.4428   85.9750    8.4202 C.ar    1  UNL1       -0.0003
     28 C          60.3520   86.7362    7.7268 C.ar    1  UNL1       -0.0003
     29 C          59.8771   88.0440    8.2871 C.ar    1  UNL1       -0.0032
     30 C          60.4928   88.5905    9.5409 C.ar    1  UNL1       -0.0103
     31 C          60.0179   89.8984   10.1014 C.3     1  UNL1        0.0953
     32 N          60.6336   90.4450   11.3552 N.3     1  UNL1       -0.2934
     33 H          59.8772   90.5564   12.0303 H       1  UNL1        0.1236
@<TRIPOS>BOND
     1    15    16    1
     2    16    17    1
     3    17    18    1
     4    18    19    1
     5    19    14    1
     6    14    13    1
     7    13    12    1
     8    12     1    1
     9     1    22    1
    10    23    22    1
    11    23    24    1
    12    24    25    1
    13    25    26   ar
    14    26    27   ar
    15    27    28   ar
    16    28    29   ar
    17    29    30   ar
    18    30    31    1
    19    31    32    1
    20     2     1    1
    21     2     3    1
    22     3     4    1
    23     4     5    1
    24     5     6    1
    25     6     7   ar
    26     7     8   ar
    27     8     9   ar
    28     9    10   ar
    29    10    11   ar
    30    19    20    1
    31    20    21    1
    32    21    16    1
    33    32    23    1
    34    11     2    1
    35    30    25   ar
    36    11     6   ar
    37    32    33    1
@<TRIPOS>MOLECULE
*****
 33 37 0 0 0
SMALL
GASTEIGER

@<TRIPOS>ATOM
      1 N          63.4006   88.1102   13.1313 N.3     1  UNL1       -0.2679
      2 C          62.7283   87.3338   12.0380 C.3     1  UNL1        0.0978
      3 C          62.8938   85.8448   11.9647 C.3     1  UNL1        0.0224
      4 C          62.2215   85.0684   10.8714 C.3     1  UNL1        0.0065
      5 C          61.3838   85.7809    9.8515 C.3     1  UNL1        0.0277
      6 C          61.2183   87.2700    9.9248 C.ar    1  UNL1       -0.0073
      7 C          60.3805   87.9826    8.9048 C.ar    1  UNL1       -0.0015
      8 C          60.2151   89.4716    8.9781 C.ar    1  UNL1        0.0203
      9 C          60.8873   90.2481   10.0714 C.ar    1  UNL1        0.0985
     10 N          61.7251   89.5355   11.0913 N.ar    1  UNL1       -0.2471
     11 C          61.8906   88.0464   11.0180 C.ar    1  UNL1        0.0695
     12 C          64.3236   87.4142   14.0870 C.3     1  UNL1        0.0738
     13 C          63.9488   87.2875   15.5339 C.3     1  UNL1        0.0347
     14 C          63.8180   85.9302   16.1587 C.3     1  UNL1        0.0736
     15 C          63.0693   81.0911   12.6912 C.3     1  UNL1        0.0897
     16 N          63.2565   82.3009   13.5581 N.3     1  UNL1       -0.2691
     17 C          64.5722   83.0211   13.5667 C.3     1  UNL1        0.0897
     18 C          64.7594   84.2309   14.4336 C.3     1  UNL1        0.0897
     19 N          63.6308   84.7204   15.2918 N.3     1  UNL1       -0.2703
     20 C          62.3150   84.0002   15.2832 C.3     1  UNL1        0.0897
     21 C          62.1279   82.7904   14.4164 C.3     1  UNL1        0.0897
     22 C          63.1498   89.5827   13.2688 C.3     1  UNL1        0.0886
     23 C          64.1043   90.4363   14.0500 C.3     1  UNL1        0.0748
     24 C          65.4751   90.7163   13.5093 C.3     1  UNL1        0.0432
     25 C          66.4297   91.5699   14.2905 C.ar    1  UNL1       -0.0234
     26 C          67.8005   91.8499   13.7498 C.ar    1  UNL1       -0.0045
     27 C          68.7549   92.7035   14.5311 C.ar    1  UNL1       -0.0003
     28 C          68.3385   93.2772   15.8530 C.ar    1  UNL1       -0.0003
     29 C          66.9677   92.9972   16.3937 C.ar    1  UNL1       -0.0032
     30 C          66.0133   92.1436   15.6125 C.ar    1  UNL1       -0.0103
     31 C          64.6423   91.8636   16.1532 C.3     1  UNL1        0.0953
     32 N          63.6879   91.0100   15.3720 N.3     1  UNL1       -0.2934
     33 H          62.8590   91.5784   15.1983 H       1  UNL1        0.1236
@<TRIPOS>BOND
     1    15    16    1
     2    16    17    1
     3    17    18    1
     4    18    19    1
     5    19    14    1
     6    14    13    1
     7    13    12    1
     8    12     1    1
     9     1    22    1
    10    23    22    1
    11    23    24    1
    12    24    25    1
    13    25    26   ar
    14    26    27   ar
    15    27    28   ar
    16    28    29   ar
    17    29    30   ar
    18    30    31    1
    19    31    32    1
    20     2     1    1
    21     2     3    1
    22     3     4    1
    23     4     5    1
    24     5     6    1
    25     6     7   ar
    26     7     8   ar
    27     8     9   ar
    28     9    10   ar
    29    10    11   ar
    30    19    20    1
    31    20    21    1
    32    21    16    1
    33    32    23    1
    34    11     2    1
    35    30    25   ar
    36    11     6   ar
    37    32    33    1
@<TRIPOS>MOLECULE
*****
 33 37 0 0 0
SMALL
GASTEIGER

@<TRIPOS>ATOM
      1 N          61.6048   87.4144   11.3454 N.3     1  UNL1       -0.2679
      2 C          60.8672   87.1823   10.0601 C.3     1  UNL1        0.0978
      3 C          59.5516   87.8608    9.8174 C.3     1  UNL1        0.0224
      4 C          58.8139   87.6287    8.5321 C.3     1  UNL1        0.0065
      5 C          59.3918   86.7182    7.4896 C.3     1  UNL1        0.0277
      6 C          60.7074   86.0397    7.7323 C.ar    1  UNL1       -0.0073
      7 C          61.2853   85.1291    6.6898 C.ar    1  UNL1       -0.0015
      8 C          62.6009   84.4507    6.9325 C.ar    1  UNL1        0.0203
      9 C          63.3385   84.6828    8.2178 C.ar    1  UNL1        0.0985
     10 N          62.7607   85.5933    9.2603 N.ar    1  UNL1       -0.2471
     11 C          61.4450   86.2718    9.0176 C.ar    1  UNL1        0.0695
     12 C          62.4333   86.3163   11.9435 C.3     1  UNL1        0.0738
     13 C          63.4998   86.6428   12.9467 C.3     1  UNL1        0.0347
     14 C          63.8980   85.6265   13.9755 C.3     1  UNL1        0.0736
     15 C          62.3889   79.8658   13.2430 C.3     1  UNL1        0.0897
     16 N          62.7662   81.3060   13.4261 N.3     1  UNL1       -0.2691
     17 C          63.8777   81.8994   12.6123 C.3     1  UNL1        0.0897
     18 C          64.2550   83.3397   12.7954 C.3     1  UNL1        0.0897
     19 N          63.5208   84.1864   13.7924 N.3     1  UNL1       -0.2703
     20 C          62.4092   83.5929   14.6063 C.3     1  UNL1        0.0897
     21 C          62.0320   82.1527   14.4231 C.3     1  UNL1        0.0897
     22 C          61.5141   88.7446   12.0326 C.3     1  UNL1        0.0886
     23 C          62.4904   89.8320   11.6940 C.3     1  UNL1        0.0748
     24 C          63.4696   90.3087   12.7254 C.3     1  UNL1        0.0432
     25 C          64.4459   91.3960   12.3868 C.ar    1  UNL1       -0.0234
     26 C          65.4251   91.8727   13.4182 C.ar    1  UNL1       -0.0045
     27 C          66.4013   92.9600   13.0795 C.ar    1  UNL1       -0.0003
     28 C          66.3983   93.5706   11.7094 C.ar    1  UNL1       -0.0003
     29 C          65.4191   93.0939   10.6780 C.ar    1  UNL1       -0.0032
     30 C          64.4429   92.0066   11.0167 C.ar    1  UNL1       -0.0103
     31 C          63.4636   91.5299    9.9852 C.3     1  UNL1        0.0953
     32 N          62.4874   90.4426   10.3239 N.3     1  UNL1       -0.2934
     33 H          62.6513   89.6833    9.6628 H       1  UNL1        0.1236
@<TRIPOS>BOND
     1    15    16    1
     2    16    17    1
     3    17    18    1
     4    18    19    1
     5    19    14    1
     6    14    13    1
     7    13    12    1
     8    12     1    1
     9     1    22    1
    10    23    22    1
    11    23    24    1
    12    24    25    1
    13    25    26   ar
    14    26    27   ar
    15    27    28   ar
    16    28    29   ar
    17    29    30   ar
    18    30    31    1
    19    31    32    1
    20     2     1    1
    21     2     3    1
    22     3     4    1
    23     4     5    1
    24     5     6    1
    25     6     7   ar
    26     7     8   ar
    27     8     9   ar
    28     9    10   ar
    29    10    11   ar
    30    19    20    1
    31    20    21    1
    32    21    16    1
    33    32    23    1
    34    11     2    1
    35    30    25   ar
    36    11     6   ar
    37    32    33    1
@<TRIPOS>MOLECULE
*****
 33 37 0 0 0
SMALL
GASTEIGER

@<TRIPOS>ATOM
      1 N          63.4079   85.0949   12.6916 N.3     1  UNL1       -0.2679
      2 C          63.5070   83.7766   11.9829 C.3     1  UNL1        0.0978
      3 C          64.2201   83.6846   10.6664 C.3     1  UNL1        0.0224
      4 C          64.3193   82.3663    9.9577 C.3     1  UNL1        0.0065
      5 C          63.7053   81.1400   10.5655 C.3     1  UNL1        0.0277
      6 C          62.9923   81.2321   11.8819 C.ar    1  UNL1       -0.0073
      7 C          62.3783   80.0058   12.4897 C.ar    1  UNL1       -0.0015
      8 C          61.6652   80.0978   13.8061 C.ar    1  UNL1        0.0203
      9 C          61.5661   81.4161   14.5148 C.ar    1  UNL1        0.0985
     10 N          62.1800   82.6424   13.9071 N.ar    1  UNL1       -0.2471
     11 C          62.8931   82.5504   12.5906 C.ar    1  UNL1        0.0695
     12 C          62.7368   86.2575   12.0224 C.3     1  UNL1        0.0738
     13 C          61.3753   86.0900   11.4154 C.3     1  UNL1        0.0347
     14 C          61.2375   85.8090    9.9485 C.3     1  UNL1        0.0736
     15 C          58.8034   89.9229    6.3220 C.3     1  UNL1        0.0897
     16 N          59.4119   88.8944    7.2286 N.3     1  UNL1       -0.2691
     17 C          59.2176   87.4346    6.9438 C.3     1  UNL1        0.0897
     18 C          59.8262   86.4061    7.8504 C.3     1  UNL1        0.0897
     19 N          60.6290   86.8375    9.0418 N.3     1  UNL1       -0.2703
     20 C          60.8232   88.2974    9.3266 C.3     1  UNL1        0.0897
     21 C          60.2147   89.3258    8.4200 C.3     1  UNL1        0.0897
     22 C          63.9798   85.2506   14.0694 C.3     1  UNL1        0.0886
     23 C          63.8670   86.5645   14.7843 C.3     1  UNL1        0.0748
     24 C          64.4769   87.7979   14.1873 C.3     1  UNL1        0.0432
     25 C          64.3641   89.1119   14.9022 C.ar    1  UNL1       -0.0234
     26 C          64.9740   90.3453   14.3052 C.ar    1  UNL1       -0.0045
     27 C          64.8612   91.6591   15.0201 C.ar    1  UNL1       -0.0003
     28 C          64.1383   91.7395   16.3320 C.ar    1  UNL1       -0.0003
     29 C          63.5284   90.5060   16.9290 C.ar    1  UNL1       -0.0032
     30 C          63.6413   89.1922   16.2141 C.ar    1  UNL1       -0.0103
     31 C          63.0313   87.9586   16.8111 C.3     1  UNL1        0.0953
     32 N          63.1442   86.6448   16.0962 N.3     1  UNL1       -0.2934
     33 H          62.1926   86.3181   15.9286 H       1  UNL1        0.1236
@<TRIPOS>BOND
     1    15    16    1
     2    16    17    1
     3    17    18    1
     4    18    19    1
     5    19    14    1
     6    14    13    1
     7    13    12    1
     8    12     1    1
     9     1    22    1
    10    23    22    1
    11    23    24    1
    12    24    25    1
    13    25    26   ar
    14    26    27   ar
    15    27    28   ar
    16    28    29   ar
    17    29    30   ar
    18    30    31    1
    19    31    32    1
    20     2     1    1
    21     2     3    1
    22     3     4    1
    23     4     5    1
    24     5     6    1
    25     6     7   ar
    26     7     8   ar
    27     8     9   ar
    28     9    10   ar
    29    10    11   ar
    30    19    20    1
    31    20    21    1
    32    21    16    1
    33    32    23    1
    34    11     2    1
    35    30    25   ar
    36    11     6   ar
    37    32    33    1
@<TRIPOS>MOLECULE
*****
 33 37 0 0 0
SMALL
GASTEIGER

@<TRIPOS>ATOM
      1 N          63.6126   89.0289   14.4126 N.3     1  UNL1       -0.2679
      2 C          63.3979   88.0184   15.5001 C.3     1  UNL1        0.0978
      3 C          63.0204   88.4701   16.8798 C.3     1  UNL1        0.0224
      4 C          62.8057   87.4595   17.9673 C.3     1  UNL1        0.0065
      5 C          62.9685   85.9973   17.6752 C.3     1  UNL1        0.0277
      6 C          63.3460   85.5456   16.2955 C.ar    1  UNL1       -0.0073
      7 C          63.5088   84.0833   16.0034 C.ar    1  UNL1       -0.0015
      8 C          63.8863   83.6317   14.6237 C.ar    1  UNL1        0.0203
      9 C          64.1010   84.6422   13.5362 C.ar    1  UNL1        0.0985
     10 N          63.9382   86.1044   13.8283 N.ar    1  UNL1       -0.2471
     11 C          63.5607   86.5562   15.2080 C.ar    1  UNL1        0.0695
     12 C          63.5022   90.4935   14.7172 C.3     1  UNL1        0.0738
     13 C          64.6971   91.2467   15.2222 C.3     1  UNL1        0.0347
     14 C          65.8992   91.4230   14.3426 C.3     1  UNL1        0.0736
     15 C          65.8187   95.4896    9.9317 C.3     1  UNL1        0.0897
     16 N          65.8388   94.4729   11.0344 N.3     1  UNL1       -0.2691
     17 C          66.4319   94.8234   12.3669 C.3     1  UNL1        0.0897
     18 C          66.4520   93.8067   13.4697 C.3     1  UNL1        0.0897
     19 N          65.8791   92.4396   13.2399 N.3     1  UNL1       -0.2703
     20 C          65.2860   92.0892   11.9074 C.3     1  UNL1        0.0897
     21 C          65.2659   93.1058   10.8047 C.3     1  UNL1        0.0897
     22 C          63.9378   88.5749   13.0205 C.3     1  UNL1        0.0886
     23 C          62.9228   88.7253   11.9262 C.3     1  UNL1        0.0748
     24 C          62.4692   87.5224   11.1535 C.3     1  UNL1        0.0432
     25 C          61.4542   87.6728   10.0593 C.ar    1  UNL1       -0.0234
     26 C          61.0005   86.4699    9.2865 C.ar    1  UNL1       -0.0045
     27 C          59.9856   86.6204    8.1924 C.ar    1  UNL1       -0.0003
     28 C          59.4243   87.9737    7.8709 C.ar    1  UNL1       -0.0003
     29 C          59.8780   89.1767    8.6436 C.ar    1  UNL1       -0.0032
     30 C          60.8929   89.0262    9.7378 C.ar    1  UNL1       -0.0103
     31 C          61.3466   90.2292   10.5106 C.3     1  UNL1        0.0953
     32 N          62.3615   90.0787   11.6048 N.3     1  UNL1       -0.2934
     33 H          61.9274   90.4279   12.4591 H       1  UNL1        0.1236
@<TRIPOS>BOND
     1    15    16    1
     2    16    17    1
     3    17    18    1
     4    18    19    1
     5    19    14    1
     6    14    13    1
     7    13    12    1
     8    12     1    1
     9     1    22    1
    10    23    22    1
    11    23    24    1
    12    24    25    1
    13    25    26   ar
    14    26    27   ar
    15    27    28   ar
    16    28    29   ar
    17    29    30   ar
    18    30    31    1
    19    31    32    1
    20     2     1    1
    21     2     3    1
    22     3     4    1
    23     4     5    1
    24     5     6    1
    25     6     7   ar
    26     7     8   ar
    27     8     9   ar
    28     9    10   ar
    29    10    11   ar
    30    19    20    1
    31    20    21    1
    32    21    16    1
    33    32    23    1
    34    11     2    1
    35    30    25   ar
    36    11     6   ar
    37    32    33    1
@<TRIPOS>MOLECULE
*****
 33 37 0 0 0
SMALL
GASTEIGER

@<TRIPOS>ATOM
      1 N          61.4777   87.6092   11.2806 N.3     1  UNL1       -0.2679
      2 C          60.7991   87.3327    9.9717 C.3     1  UNL1        0.0978
      3 C          59.5112   88.0236    9.6340 C.3     1  UNL1        0.0224
      4 C          58.8326   87.7471    8.3251 C.3     1  UNL1        0.0065
      5 C          59.4419   86.7798    7.3540 C.3     1  UNL1        0.0277
      6 C          60.7297   86.0889    7.6918 C.ar    1  UNL1       -0.0073
      7 C          61.3390   85.1216    6.7207 C.ar    1  UNL1       -0.0015
      8 C          62.6269   84.4307    7.0584 C.ar    1  UNL1        0.0203
      9 C          63.3054   84.7071    8.3673 C.ar    1  UNL1        0.0985
     10 N          62.6962   85.6745    9.3384 N.ar    1  UNL1       -0.2471
     11 C          61.4083   86.3654    9.0006 C.ar    1  UNL1        0.0695
     12 C          62.4228   86.6005   11.8631 C.3     1  UNL1        0.0738
     13 C          63.4434   87.0268   12.8764 C.3     1  UNL1        0.0347
     14 C          63.9192   86.0557   13.9159 C.3     1  UNL1        0.0736
     15 C          62.5378   80.2362   13.4404 C.3     1  UNL1        0.0897
     16 N          62.8832   81.6911   13.5593 N.3     1  UNL1       -0.2691
     17 C          63.9854   82.2710   12.7233 C.3     1  UNL1        0.0897
     18 C          64.3308   83.7259   12.8422 C.3     1  UNL1        0.0897
     19 N          63.5739   84.6008   13.7970 N.3     1  UNL1       -0.2703
     20 C          62.4717   84.0208   14.6330 C.3     1  UNL1        0.0897
     21 C          62.1263   82.5660   14.5141 C.3     1  UNL1        0.0897
     22 C          61.2111   88.8942   12.0069 C.3     1  UNL1        0.0886
     23 C          62.3457   89.8183   12.3371 C.3     1  UNL1        0.0748
     24 C          63.0479   90.5649   11.2419 C.3     1  UNL1        0.0432
     25 C          64.1825   91.4890   11.5722 C.ar    1  UNL1       -0.0234
     26 C          64.8847   92.2356   10.4770 C.ar    1  UNL1       -0.0045
     27 C          66.0192   93.1597   10.8073 C.ar    1  UNL1       -0.0003
     28 C          66.4513   93.3371   12.2327 C.ar    1  UNL1       -0.0003
     29 C          65.7490   92.5906   13.3278 C.ar    1  UNL1       -0.0032
     30 C          64.6146   91.6665   12.9976 C.ar    1  UNL1       -0.0103
     31 C          63.9123   90.9199   14.0927 C.3     1  UNL1        0.0953
     32 N          62.7778   89.9958   13.7625 N.3     1  UNL1       -0.2934
     33 H          61.9642   90.3328   14.2770 H       1  UNL1        0.1236
@<TRIPOS>BOND
     1    15    16    1
     2    16    17    1
     3    17    18    1
     4    18    19    1
     5    19    14    1
     6    14    13    1
     7    13    12    1
     8    12     1    1
     9     1    22    1
    10    23    22    1
    11    23    24    1
    12    24    25    1
    13    25    26   ar
    14    26    27   ar
    15    27    28   ar
    16    28    29   ar
    17    29    30   ar
    18    30    31    1
    19    31    32    1
    20     2     1    1
    21     2     3    1
    22     3     4    1
    23     4     5    1
    24     5     6    1
    25     6     7   ar
    26     7     8   ar
    27     8     9   ar
    28     9    10   ar
    29    10    11   ar
    30    19    20    1
    31    20    21    1
    32    21    16    1
    33    32    23    1
    34    11     2    1
    35    30    25   ar
    36    11     6   ar
    37    32    33    1
@<TRIPOS>MOLECULE
*****
 33 37 0 0 0
SMALL
GASTEIGER

@<TRIPOS>ATOM
      1 N          63.0595   85.0348   13.1147 N.3     1  UNL1       -0.2679
      2 C          63.2741   83.8455   12.2262 C.3     1  UNL1        0.0978
      3 C          63.9775   84.0087   10.9115 C.3     1  UNL1        0.0224
      4 C          64.1922   82.8194   10.0229 C.3     1  UNL1        0.0065
      5 C          63.7034   81.4669   10.4491 C.3     1  UNL1        0.0277
      6 C          63.0000   81.3036   11.7638 C.ar    1  UNL1       -0.0073
      7 C          62.5112   79.9510   12.1900 C.ar    1  UNL1       -0.0015
      8 C          61.8077   79.7878   13.5047 C.ar    1  UNL1        0.0203
      9 C          61.5931   80.9771   14.3933 C.ar    1  UNL1        0.0985
     10 N          62.0819   82.3296   13.9671 N.ar    1  UNL1       -0.2471
     11 C          62.7853   82.4929   12.6523 C.ar    1  UNL1        0.0695
     12 C          62.5070   84.8485   14.4968 C.3     1  UNL1        0.0738
     13 C          63.3740   85.1099   15.6926 C.3     1  UNL1        0.0347
     14 C          63.0820   86.2755   16.5903 C.3     1  UNL1        0.0736
     15 C          64.6405   91.8204   14.9093 C.3     1  UNL1        0.0897
     16 N          64.2509   90.4342   15.3296 N.3     1  UNL1       -0.2691
     17 C          63.4027   90.2310   16.5499 C.3     1  UNL1        0.0897
     18 C          63.0131   88.8447   16.9702 C.3     1  UNL1        0.0897
     19 N          63.4716   87.6617   16.1701 N.3     1  UNL1       -0.2703
     20 C          64.3198   87.8650   14.9497 C.3     1  UNL1        0.0897
     21 C          64.7094   89.2512   14.5295 C.3     1  UNL1        0.0897
     22 C          63.3973   86.4104   12.6213 C.3     1  UNL1        0.0886
     23 C          62.5196   87.0793   11.6052 C.3     1  UNL1        0.0748
     24 C          61.8127   86.2580   10.5680 C.3     1  UNL1        0.0432
     25 C          60.9350   86.9269    9.5519 C.ar    1  UNL1       -0.0234
     26 C          60.2281   86.1057    8.5147 C.ar    1  UNL1       -0.0045
     27 C          59.3505   86.7746    7.4987 C.ar    1  UNL1       -0.0003
     28 C          59.1797   88.2647    7.5199 C.ar    1  UNL1       -0.0003
     29 C          59.8866   89.0859    8.5571 C.ar    1  UNL1       -0.0032
     30 C          60.7643   88.4170    9.5731 C.ar    1  UNL1       -0.0103
     31 C          61.4712   89.2382   10.6104 C.3     1  UNL1        0.0953
     32 N          62.3488   88.5694   11.6264 N.3     1  UNL1       -0.2934
     33 H          61.9732   88.8096   12.5438 H       1  UNL1        0.1236
@<TRIPOS>BOND
     1    15    16    1
     2    16    17    1
     3    17    18    1
     4    18    19    1
     5    19    14    1
     6    14    13    1
     7    13    12    1
     8    12     1    1
     9     1    22    1
    10    23    22    1
    11    23    24    1
    12    24    25    1
    13    25    26   ar
    14    26    27   ar
    15    27    28   ar
    16    28    29   ar
    17    29    30   ar
    18    30    31    1
    19    31    32    1
    20     2     1    1
    21     2     3    1
    22     3     4    1
    23     4     5    1
    24     5     6    1
    25     6     7   ar
    26     7     8   ar
    27     8     9   ar
    28     9    10   ar
    29    10    11   ar
    30    19    20    1
    31    20    21    1
    32    21    16    1
    33    32    23    1
    34    11     2    1
    35    30    25   ar
    36    11     6   ar
    37    32    33    1
