@<TRIPOS>MOLECULE
*****
 35 38 0 0 0
SMALL
GASTEIGER

@<TRIPOS>ATOM
      1 C          63.8241   85.5501   15.3817 C.ar    1  UNL1        0.1311
      2 C          64.2290   86.3231   14.1616 C.ar    1  UNL1        0.0339
      3 C          64.2155   87.8228   14.1853 C.ar    1  UNL1        0.0027
      4 C          63.7970   88.5496   15.4290 C.ar    1  UNL1        0.0283
      5 C          63.3921   87.7766   16.6491 C.ar    1  UNL1        0.2196
      6 F          62.9737   88.5033   17.8927 F       1  UNL1       -0.1835
      7 N          63.4057   86.2768   16.6254 N.ar    1  UNL1       -0.2035
      8 N          63.8377   84.0504   15.3581 N.pl3   1  UNL1       -0.3143
      9 H          64.5741   83.5579   15.7876 H       1  UNL1        0.1485
     10 C          62.7292   83.3008   14.6801 C.3     1  UNL1        0.1201
     11 C          62.4543   81.2685   13.0852 C.ar    1  UNL1        0.2225
     12 N          62.6919   80.6212   11.7530 N.ar    1  UNL1       -0.2080
     13 C          63.4420   81.3589   10.6839 C.ar    1  UNL1        0.1316
     14 C          63.9545   82.7439   10.9468 C.ar    1  UNL1        0.1592
     15 F          64.7046   83.4815    9.8775 F       1  UNL1       -0.2025
     16 C          63.7169   83.3911   12.2789 C.ar    1  UNL1        0.0333
     17 C          62.9668   82.6534   13.3481 C.ar    1  UNL1        0.0529
     18 C          60.2042   80.5274   14.1520 C.3     1  UNL1        0.2542
     19 O          61.7042   80.5308   14.1543 O.3     1  UNL1       -0.4563
     20 C          63.7835   90.0494   15.4526 C.3     1  UNL1        0.0582
     21 C          64.4743   90.8228   14.3689 C.ar    1  UNL1        0.0044
     22 C          65.7801   91.5493   14.4994 C.ar    1  UNL1        0.0966
     23 N          66.0934   92.1810   13.1755 N.ar    1  UNL1       -0.2273
     24 C          64.9813   91.8449   12.2267 C.ar    1  UNL1        0.1403
     25 N          64.7505   92.1948   10.7865 N.ar    1  UNL1       -0.3364
     26 C          63.5191   91.7052   10.0838 C.ar    1  UNL1        0.0883
     27 C          62.5184   90.8657   10.8214 C.ar    1  UNL1        0.0677
     28 C          62.7492   90.5159   12.2616 C.ar    1  UNL1        0.0189
     29 C          63.9806   91.0055   12.9643 C.ar    1  UNL1        0.0331
     30 H          65.4073   92.7457   10.3024 H       1  UNL1        0.1674
     31 N          61.2869   90.3762   10.1186 N.am    1  UNL1       -0.2827
     32 C          61.2291   88.9705    9.5983 C.2     1  UNL1        0.2266
     33 C          59.9976   88.4809    8.8956 C.3     1  UNL1        0.0949
     34 O          62.4027   88.0544    9.7808 O.2     1  UNL1       -0.2748
     35 H          60.5166   90.9774    9.9989 H       1  UNL1        0.1549
@<TRIPOS>BOND
     1    18    19    1
     2    19    11    1
     3    11    12   ar
     4    12    13   ar
     5    13    14   ar
     6    14    15    1
     7    14    16   ar
     8    16    17   ar
     9    17    10    1
    10    10     8    1
    11     8     1    1
    12     1     2   ar
    13     2     3   ar
    14     3     4   ar
    15     4    20    1
    16    20    21    1
    17    21    22   ar
    18    22    23   ar
    19    23    24   ar
    20    24    25   ar
    21    25    26   ar
    22    26    27   ar
    23    27    31    1
    24    31    32   am
    25    32    33    1
    26    32    34    2
    27    27    28   ar
    28    28    29   ar
    29     4     5   ar
    30     5     6    1
    31     5     7   ar
    32    17    11   ar
    33     7     1   ar
    34    29    21   ar
    35    29    24    1
    36     8     9    1
    37    25    30    1
    38    31    35    1
@<TRIPOS>MOLECULE
*****
 35 38 0 0 0
SMALL
GASTEIGER

@<TRIPOS>ATOM
      1 C          62.5288   89.9864   10.8037 C.ar    1  UNL1        0.1311
      2 C          63.0391   89.0186   11.8299 C.ar    1  UNL1        0.0339
      3 C          62.7539   87.5531   11.6857 C.ar    1  UNL1        0.0027
      4 C          61.9583   87.0553   10.5156 C.ar    1  UNL1        0.0283
      5 C          61.4480   88.0231    9.4894 C.ar    1  UNL1        0.2196
      6 F          60.6524   87.5253    8.3193 F       1  UNL1       -0.1835
      7 N          61.7332   89.4886    9.6336 N.ar    1  UNL1       -0.2035
      8 N          62.8140   91.4519   10.9478 N.pl3   1  UNL1       -0.3143
      9 H          62.1006   92.0663   11.2357 H       1  UNL1        0.1485
     10 C          64.1861   91.9816   10.6532 C.3     1  UNL1        0.1201
     11 C          66.6149   92.4775   11.4311 C.ar    1  UNL1        0.2225
     12 N          67.6346   92.5695   12.5273 N.ar    1  UNL1       -0.2080
     13 C          67.2452   92.2575   13.9419 C.ar    1  UNL1        0.1316
     14 C          65.8361   91.8535   14.2602 C.ar    1  UNL1        0.1592
     15 F          65.4468   91.5416   15.6749 F       1  UNL1       -0.2025
     16 C          64.8165   91.7616   13.1640 C.ar    1  UNL1        0.0333
     17 C          65.2059   92.0736   11.7494 C.ar    1  UNL1        0.0529
     18 C          68.3169   92.3052    9.4756 C.3     1  UNL1        0.2542
     19 O          67.0043   92.7895   10.0165 O.3     1  UNL1       -0.4563
     20 C          61.6731   85.5896   10.3715 C.3     1  UNL1        0.0582
     21 C          62.7197   84.5817   10.7439 C.ar    1  UNL1        0.0044
     22 C          63.5501   83.7784    9.7874 C.ar    1  UNL1        0.0966
     23 N          64.4633   82.9004   10.5906 N.ar    1  UNL1       -0.2273
     24 C          64.1972   83.1611   12.0437 C.ar    1  UNL1        0.1403
     25 N          64.7970   82.5866   13.2927 N.ar    1  UNL1       -0.3364
     26 C          64.3191   83.0511   14.6365 C.ar    1  UNL1        0.0883
     27 C          63.2415   84.0903   14.7312 C.ar    1  UNL1        0.0677
     28 C          62.6418   84.6648   13.4822 C.ar    1  UNL1        0.0189
     29 C          63.1196   84.2002   12.1384 C.ar    1  UNL1        0.0331
     30 H          65.5043   81.9045   13.2305 H       1  UNL1        0.1674
     31 N          62.7637   84.5548   16.0751 N.am    1  UNL1       -0.2827
     32 C          63.0642   85.9499   16.5368 C.2     1  UNL1        0.2266
     33 C          62.5864   86.4145   17.8807 C.3     1  UNL1        0.0949
     34 O          63.8426   86.8806   15.6548 O.2     1  UNL1       -0.2748
     35 H          62.2528   83.9440   16.6540 H       1  UNL1        0.1549
@<TRIPOS>BOND
     1    18    19    1
     2    19    11    1
     3    11    12   ar
     4    12    13   ar
     5    13    14   ar
     6    14    15    1
     7    14    16   ar
     8    16    17   ar
     9    17    10    1
    10    10     8    1
    11     8     1    1
    12     1     2   ar
    13     2     3   ar
    14     3     4   ar
    15     4    20    1
    16    20    21    1
    17    21    22   ar
    18    22    23   ar
    19    23    24   ar
    20    24    25   ar
    21    25    26   ar
    22    26    27   ar
    23    27    31    1
    24    31    32   am
    25    32    33    1
    26    32    34    2
    27    27    28   ar
    28    28    29   ar
    29     4     5   ar
    30     5     6    1
    31     5     7   ar
    32    17    11   ar
    33     7     1   ar
    34    29    21   ar
    35    29    24    1
    36     8     9    1
    37    25    30    1
    38    31    35    1
@<TRIPOS>MOLECULE
*****
 35 38 0 0 0
SMALL
GASTEIGER

@<TRIPOS>ATOM
      1 C          61.9788   86.4394   10.8742 C.ar    1  UNL1        0.1311
      2 C          62.8232   87.1627   11.8810 C.ar    1  UNL1        0.0339
      3 C          63.0141   88.6465   11.7723 C.ar    1  UNL1        0.0027
      4 C          62.3606   89.4070   10.6567 C.ar    1  UNL1        0.0283
      5 C          61.5161   88.6838    9.6499 C.ar    1  UNL1        0.2196
      6 F          60.8626   89.4443    8.5343 F       1  UNL1       -0.1835
      7 N          61.3252   87.2000    9.7586 N.ar    1  UNL1       -0.2035
      8 N          61.7878   84.9556   10.9829 N.pl3   1  UNL1       -0.3143
      9 H          60.8934   84.5639   10.8572 H       1  UNL1        0.1485
     10 C          62.9596   84.0686   11.2831 C.3     1  UNL1        0.1201
     11 C          62.5813   83.0433   13.6402 C.ar    1  UNL1        0.2225
     12 N          62.4064   81.8422   14.5215 N.ar    1  UNL1       -0.2080
     13 C          62.4348   80.4653   13.9271 C.ar    1  UNL1        0.1316
     14 C          62.6382   80.2895   12.4514 C.ar    1  UNL1        0.1592
     15 F          62.6666   78.9125   11.8570 F       1  UNL1       -0.2025
     16 C          62.8131   81.4906   11.5701 C.ar    1  UNL1        0.0333
     17 C          62.7847   82.8675   12.1645 C.ar    1  UNL1        0.0529
     18 C          62.5869   84.5951   15.7239 C.3     1  UNL1        0.2542
     19 O          62.5529   84.4202   14.2346 O.3     1  UNL1       -0.4563
     20 C          62.5515   90.8909   10.5480 C.3     1  UNL1        0.0582
     21 C          63.7386   91.5436   11.1922 C.ar    1  UNL1        0.0044
     22 C          64.7555   92.4026   10.5009 C.ar    1  UNL1        0.0966
     23 N          65.7625   92.8417   11.5222 N.ar    1  UNL1       -0.2273
     24 C          65.3680   92.2540   12.8447 C.ar    1  UNL1        0.1403
     25 N          65.9861   92.3457   14.2083 N.ar    1  UNL1       -0.3364
     26 C          65.3534   91.6352   15.3679 C.ar    1  UNL1        0.0883
     27 C          64.1025   90.8329   15.1639 C.ar    1  UNL1        0.0677
     28 C          63.4843   90.7412   13.8003 C.ar    1  UNL1        0.0189
     29 C          64.1171   91.4517   12.6407 C.ar    1  UNL1        0.0331
     30 H          66.8071   92.8723   14.3422 H       1  UNL1        0.1674
     31 N          63.4697   90.1224   16.3236 N.am    1  UNL1       -0.2827
     32 C          63.3973   88.6242   16.3363 C.2     1  UNL1        0.2266
     33 C          62.7646   87.9136   17.4960 C.3     1  UNL1        0.0949
     34 O          63.9577   87.8365   15.1893 O.2     1  UNL1       -0.2748
     35 H          63.1019   90.6393   17.0764 H       1  UNL1        0.1549
@<TRIPOS>BOND
     1    18    19    1
     2    19    11    1
     3    11    12   ar
     4    12    13   ar
     5    13    14   ar
     6    14    15    1
     7    14    16   ar
     8    16    17   ar
     9    17    10    1
    10    10     8    1
    11     8     1    1
    12     1     2   ar
    13     2     3   ar
    14     3     4   ar
    15     4    20    1
    16    20    21    1
    17    21    22   ar
    18    22    23   ar
    19    23    24   ar
    20    24    25   ar
    21    25    26   ar
    22    26    27   ar
    23    27    31    1
    24    31    32   am
    25    32    33    1
    26    32    34    2
    27    27    28   ar
    28    28    29   ar
    29     4     5   ar
    30     5     6    1
    31     5     7   ar
    32    17    11   ar
    33     7     1   ar
    34    29    21   ar
    35    29    24    1
    36     8     9    1
    37    25    30    1
    38    31    35    1
@<TRIPOS>MOLECULE
*****
 35 38 0 0 0
SMALL
GASTEIGER

@<TRIPOS>ATOM
      1 C          60.8583   87.3037    9.5242 C.ar    1  UNL1        0.1311
      2 C          60.9194   86.6477   10.8718 C.ar    1  UNL1        0.0339
      3 C          61.8311   85.4778   11.0957 C.ar    1  UNL1        0.0027
      4 C          62.6817   84.9639    9.9722 C.ar    1  UNL1        0.0283
      5 C          62.6207   85.6199    8.6246 C.ar    1  UNL1        0.2196
      6 F          63.4713   85.1061    7.5011 F       1  UNL1       -0.1835
      7 N          61.7090   86.7898    8.4007 N.ar    1  UNL1       -0.2035
      8 N          59.9467   88.4735    9.3002 N.pl3   1  UNL1       -0.3143
      9 H          59.0036   88.3238    9.0605 H       1  UNL1        0.1485
     10 C          60.4717   89.8715    9.4414 C.3     1  UNL1        0.1201
     11 C          61.2579   89.8204   11.9171 C.ar    1  UNL1        0.2225
     12 N          62.2917   90.1318   12.9585 N.ar    1  UNL1       -0.2080
     13 C          63.5729   90.8055   12.5655 C.ar    1  UNL1        0.1316
     14 C          63.8204   91.1679   11.1311 C.ar    1  UNL1        0.1592
     15 F          65.1018   91.8417   10.7382 F       1  UNL1       -0.2025
     16 C          62.7867   90.8566   10.0898 C.ar    1  UNL1        0.0333
     17 C          61.5054   90.1828   10.4828 C.ar    1  UNL1        0.0529
     18 C          58.7081   89.9419   12.4004 C.3     1  UNL1        0.2542
     19 O          59.9767   89.1467   12.3102 O.3     1  UNL1       -0.4563
     20 C          63.5935   83.7940   10.1962 C.3     1  UNL1        0.0582
     21 C          63.3992   82.9100   11.3924 C.ar    1  UNL1        0.0044
     22 C          63.1405   81.4327   11.3643 C.ar    1  UNL1        0.0966
     23 N          63.0110   80.9579   12.7812 N.ar    1  UNL1       -0.2273
     24 C          63.1895   82.1416   13.6850 C.ar    1  UNL1        0.1403
     25 N          63.1646   82.2768   15.1787 N.ar    1  UNL1       -0.3364
     26 C          63.3797   83.6184   15.8140 C.ar    1  UNL1        0.0883
     27 C          63.6196   84.8249   14.9556 C.ar    1  UNL1        0.0677
     28 C          63.6445   84.6898   13.4620 C.ar    1  UNL1        0.0189
     29 C          63.4295   83.3481   12.8267 C.ar    1  UNL1        0.0331
     30 H          63.0071   81.4849   15.7420 H       1  UNL1        0.1674
     31 N          63.8347   86.1666   15.5910 N.am    1  UNL1       -0.2827
     32 C          62.8536   86.6843   16.6007 C.2     1  UNL1        0.2266
     33 C          63.0686   88.0260   17.2361 C.3     1  UNL1        0.0949
     34 O          61.6573   85.8603   16.9750 O.2     1  UNL1       -0.2748
     35 H          64.6198   86.7075   15.3454 H       1  UNL1        0.1549
@<TRIPOS>BOND
     1    18    19    1
     2    19    11    1
     3    11    12   ar
     4    12    13   ar
     5    13    14   ar
     6    14    15    1
     7    14    16   ar
     8    16    17   ar
     9    17    10    1
    10    10     8    1
    11     8     1    1
    12     1     2   ar
    13     2     3   ar
    14     3     4   ar
    15     4    20    1
    16    20    21    1
    17    21    22   ar
    18    22    23   ar
    19    23    24   ar
    20    24    25   ar
    21    25    26   ar
    22    26    27   ar
    23    27    31    1
    24    31    32   am
    25    32    33    1
    26    32    34    2
    27    27    28   ar
    28    28    29   ar
    29     4     5   ar
    30     5     6    1
    31     5     7   ar
    32    17    11   ar
    33     7     1   ar
    34    29    21   ar
    35    29    24    1
    36     8     9    1
    37    25    30    1
    38    31    35    1
@<TRIPOS>MOLECULE
*****
 35 38 0 0 0
SMALL
GASTEIGER

@<TRIPOS>ATOM
      1 C          63.0253   90.1333   11.9039 C.ar    1  UNL1        0.1311
      2 C          63.4443   88.8986   12.6455 C.ar    1  UNL1        0.0339
      3 C          63.0747   87.5445   12.1167 C.ar    1  UNL1        0.0027
      4 C          62.2863   87.4250   10.8463 C.ar    1  UNL1        0.0283
      5 C          61.8673   88.6596   10.1046 C.ar    1  UNL1        0.2196
      6 F          61.0788   88.5401    8.8342 F       1  UNL1       -0.1835
      7 N          62.2368   90.0138   10.6334 N.ar    1  UNL1       -0.2035
      8 N          63.3948   91.4875   12.4326 N.pl3   1  UNL1       -0.3143
      9 H          62.7268   92.0269   12.9143 H       1  UNL1        0.1485
     10 C          64.7821   92.0199   12.2275 C.3     1  UNL1        0.1201
     11 C          65.2760   91.8157   14.7700 C.ar    1  UNL1        0.2225
     12 N          66.2531   91.8214   15.9080 N.ar    1  UNL1       -0.2080
     13 C          67.7134   92.0372   15.6416 C.ar    1  UNL1        0.1316
     14 C          68.1966   92.2471   14.2372 C.ar    1  UNL1        0.1592
     15 F          69.6570   92.4628   13.9708 F       1  UNL1       -0.2025
     16 C          67.2195   92.2414   13.0991 C.ar    1  UNL1        0.0333
     17 C          65.7592   92.0257   13.3655 C.ar    1  UNL1        0.0529
     18 C          63.3794   90.5620   16.0273 C.3     1  UNL1        0.2542
     19 O          63.8157   91.6000   15.0364 O.3     1  UNL1       -0.4563
     20 C          61.9167   86.0707   10.3175 C.3     1  UNL1        0.0582
     21 C          62.7900   84.8870   10.6111 C.ar    1  UNL1        0.0044
     22 C          63.5065   84.0465    9.5961 C.ar    1  UNL1        0.0966
     23 N          64.2594   82.9761   10.3291 N.ar    1  UNL1       -0.2273
     24 C          64.0083   83.1550   11.7970 C.ar    1  UNL1        0.1403
     25 N          64.4892   82.3950   12.9975 N.ar    1  UNL1       -0.3364
     26 C          64.0620   82.8161   14.3723 C.ar    1  UNL1        0.0883
     27 C          63.1538   83.9972   14.5466 C.ar    1  UNL1        0.0677
     28 C          62.6729   84.7571   13.3461 C.ar    1  UNL1        0.0189
     29 C          63.1001   84.3360   11.9714 C.ar    1  UNL1        0.0331
     30 H          65.0853   81.6199   12.8831 H       1  UNL1        0.1674
     31 N          62.7266   84.4183   15.9215 N.am    1  UNL1       -0.2827
     32 C          63.0724   85.7872   16.4280 C.2     1  UNL1        0.2266
     33 C          62.6452   86.2083   17.8028 C.3     1  UNL1        0.0949
     34 O          63.8454   86.7350   15.5596 O.2     1  UNL1       -0.2748
     35 H          62.2193   83.7962   16.4914 H       1  UNL1        0.1549
@<TRIPOS>BOND
     1    18    19    1
     2    19    11    1
     3    11    12   ar
     4    12    13   ar
     5    13    14   ar
     6    14    15    1
     7    14    16   ar
     8    16    17   ar
     9    17    10    1
    10    10     8    1
    11     8     1    1
    12     1     2   ar
    13     2     3   ar
    14     3     4   ar
    15     4    20    1
    16    20    21    1
    17    21    22   ar
    18    22    23   ar
    19    23    24   ar
    20    24    25   ar
    21    25    26   ar
    22    26    27   ar
    23    27    31    1
    24    31    32   am
    25    32    33    1
    26    32    34    2
    27    27    28   ar
    28    28    29   ar
    29     4     5   ar
    30     5     6    1
    31     5     7   ar
    32    17    11   ar
    33     7     1   ar
    34    29    21   ar
    35    29    24    1
    36     8     9    1
    37    25    30    1
    38    31    35    1
@<TRIPOS>MOLECULE
*****
 35 38 0 0 0
SMALL
GASTEIGER

@<TRIPOS>ATOM
      1 C          63.7112   85.7896   15.4777 C.ar    1  UNL1        0.1311
      2 C          64.2687   86.5216   14.2931 C.ar    1  UNL1        0.0339
      3 C          64.3517   88.0192   14.3081 C.ar    1  UNL1        0.0027
      4 C          63.8773   88.7848   15.5076 C.ar    1  UNL1        0.0283
      5 C          63.3198   88.0527   16.6922 C.ar    1  UNL1        0.2196
      6 F          62.8453   88.8183   17.8917 F       1  UNL1       -0.1835
      7 N          63.2368   86.5551   16.6772 N.ar    1  UNL1       -0.2035
      8 N          63.6282   84.2920   15.4628 N.pl3   1  UNL1       -0.3143
      9 H          64.3830   83.7538   15.7944 H       1  UNL1        0.1485
     10 C          62.3952   83.6142   14.9428 C.3     1  UNL1        0.1201
     11 C          62.7576   82.9895   12.4471 C.ar    1  UNL1        0.2225
     12 N          62.8701   81.9503   11.3713 N.ar    1  UNL1       -0.2080
     13 C          62.7329   80.4967   11.7153 C.ar    1  UNL1        0.1316
     14 C          62.4830   80.0823   13.1351 C.ar    1  UNL1        0.1592
     15 F          62.3458   78.6287   13.4790 F       1  UNL1       -0.2025
     16 C          62.3705   81.1215   14.2109 C.ar    1  UNL1        0.0333
     17 C          62.5078   82.5751   13.8669 C.ar    1  UNL1        0.0529
     18 C          62.7368   84.8956   10.6818 C.3     1  UNL1        0.2542
     19 O          62.8948   84.4430   12.1031 O.3     1  UNL1       -0.4563
     20 C          63.9603   90.2825   15.5225 C.3     1  UNL1        0.0582
     21 C          64.6350   91.0075   14.3959 C.ar    1  UNL1        0.0044
     22 C          65.9558   91.7148   14.4682 C.ar    1  UNL1        0.0966
     23 N          66.2444   92.2969   13.1162 N.ar    1  UNL1       -0.2273
     24 C          65.1021   91.9493   12.2084 C.ar    1  UNL1        0.1403
     25 N          64.8391   92.2555   10.7637 N.ar    1  UNL1       -0.3364
     26 C          63.5814   91.7648   10.1100 C.ar    1  UNL1        0.0883
     27 C          62.5867   90.9679   10.9009 C.ar    1  UNL1        0.0677
     28 C          62.8497   90.6617   12.3455 C.ar    1  UNL1        0.0189
     29 C          64.1074   91.1524   12.9993 C.ar    1  UNL1        0.0331
     30 H          65.4919   92.7786   10.2446 H       1  UNL1        0.1674
     31 N          61.3290   90.4773   10.2471 N.am    1  UNL1       -0.2827
     32 C          61.2581   89.0772    9.7134 C.2     1  UNL1        0.2266
     33 C          60.0004   88.5866    9.0596 C.3     1  UNL1        0.0949
     34 O          62.4450   88.1679    9.8334 O.2     1  UNL1       -0.2748
     35 H          60.5500   91.0741   10.1683 H       1  UNL1        0.1549
@<TRIPOS>BOND
     1    18    19    1
     2    19    11    1
     3    11    12   ar
     4    12    13   ar
     5    13    14   ar
     6    14    15    1
     7    14    16   ar
     8    16    17   ar
     9    17    10    1
    10    10     8    1
    11     8     1    1
    12     1     2   ar
    13     2     3   ar
    14     3     4   ar
    15     4    20    1
    16    20    21    1
    17    21    22   ar
    18    22    23   ar
    19    23    24   ar
    20    24    25   ar
    21    25    26   ar
    22    26    27   ar
    23    27    31    1
    24    31    32   am
    25    32    33    1
    26    32    34    2
    27    27    28   ar
    28    28    29   ar
    29     4     5   ar
    30     5     6    1
    31     5     7   ar
    32    17    11   ar
    33     7     1   ar
    34    29    21   ar
    35    29    24    1
    36     8     9    1
    37    25    30    1
    38    31    35    1
@<TRIPOS>MOLECULE
*****
 35 38 0 0 0
SMALL
GASTEIGER

@<TRIPOS>ATOM
      1 C          61.9140   89.3776   11.4214 C.ar    1  UNL1        0.1311
      2 C          62.5079   90.4270   10.5292 C.ar    1  UNL1        0.0339
      3 C          63.5308   91.3809   11.0713 C.ar    1  UNL1        0.0027
      4 C          63.9596   91.2855   12.5055 C.ar    1  UNL1        0.0283
      5 C          63.3656   90.2361   13.3977 C.ar    1  UNL1        0.2196
      6 F          63.7945   90.1407   14.8319 F       1  UNL1       -0.1835
      7 N          62.3428   89.2822   12.8556 N.ar    1  UNL1       -0.2035
      8 N          60.8911   88.4237   10.8794 N.pl3   1  UNL1       -0.3143
      9 H          60.2377   88.7307   10.2100 H       1  UNL1        0.1485
     10 C          60.8637   87.0021   11.3572 C.3     1  UNL1        0.1201
     11 C          62.5669   85.0649   11.6680 C.ar    1  UNL1        0.2225
     12 N          63.5102   84.0577   11.0799 N.ar    1  UNL1       -0.2080
     13 C          63.6936   83.9807    9.5931 C.ar    1  UNL1        0.1316
     14 C          62.9338   84.9107    8.6945 C.ar    1  UNL1        0.1592
     15 F          63.1173   84.8336    7.2077 F       1  UNL1       -0.2025
     16 C          61.9905   85.9179    9.2825 C.ar    1  UNL1        0.0333
     17 C          61.8070   85.9949   10.7693 C.ar    1  UNL1        0.0529
     18 C          63.4957   84.7247   14.0703 C.3     1  UNL1        0.2542
     19 O          62.3834   85.1420   13.1547 O.3     1  UNL1       -0.4563
     20 C          64.9825   92.2394   13.0475 C.3     1  UNL1        0.0582
     21 C          66.4098   92.1449   12.5960 C.ar    1  UNL1        0.0044
     22 C          67.5298   91.4860   13.3452 C.ar    1  UNL1        0.0966
     23 N          68.7799   91.6266   12.5281 N.ar    1  UNL1       -0.2273
     24 C          68.4324   92.3724   11.2739 C.ar    1  UNL1        0.1403
     25 N          69.2606   92.8012   10.0991 N.ar    1  UNL1       -0.3364
     26 C          68.6240   93.5504    8.9662 C.ar    1  UNL1        0.0883
     27 C          67.1592   93.8707    9.0081 C.ar    1  UNL1        0.0677
     28 C          66.3310   93.4419   10.1829 C.ar    1  UNL1        0.0189
     29 C          66.9676   92.6928   11.3158 C.ar    1  UNL1        0.0331
     30 H          70.2220   92.5910   10.0716 H       1  UNL1        0.1674
     31 N          66.5226   94.6199    7.8752 N.am    1  UNL1       -0.2827
     32 C          66.3170   96.1021    7.9778 C.2     1  UNL1        0.2266
     33 C          65.6804   96.8513    6.8449 C.3     1  UNL1        0.0949
     34 O          66.7480   96.8353    9.2134 O.2     1  UNL1       -0.2748
     35 H          66.2397   94.1387    7.0642 H       1  UNL1        0.1549
@<TRIPOS>BOND
     1    18    19    1
     2    19    11    1
     3    11    12   ar
     4    12    13   ar
     5    13    14   ar
     6    14    15    1
     7    14    16   ar
     8    16    17   ar
     9    17    10    1
    10    10     8    1
    11     8     1    1
    12     1     2   ar
    13     2     3   ar
    14     3     4   ar
    15     4    20    1
    16    20    21    1
    17    21    22   ar
    18    22    23   ar
    19    23    24   ar
    20    24    25   ar
    21    25    26   ar
    22    26    27   ar
    23    27    31    1
    24    31    32   am
    25    32    33    1
    26    32    34    2
    27    27    28   ar
    28    28    29   ar
    29     4     5   ar
    30     5     6    1
    31     5     7   ar
    32    17    11   ar
    33     7     1   ar
    34    29    21   ar
    35    29    24    1
    36     8     9    1
    37    25    30    1
    38    31    35    1
@<TRIPOS>MOLECULE
*****
 35 38 0 0 0
SMALL
GASTEIGER

@<TRIPOS>ATOM
      1 C          62.1874   88.7615   11.1548 C.ar    1  UNL1        0.1311
      2 C          62.5880   89.9218   10.2926 C.ar    1  UNL1        0.0339
      3 C          63.4639   91.0038   10.8511 C.ar    1  UNL1        0.0027
      4 C          63.9392   90.9257   12.2716 C.ar    1  UNL1        0.0283
      5 C          63.5387   89.7654   13.1338 C.ar    1  UNL1        0.2196
      6 F          64.0140   89.6872   14.5543 F       1  UNL1       -0.1835
      7 N          62.6627   88.6833   12.5753 N.ar    1  UNL1       -0.2035
      8 N          61.3114   87.6794   10.5964 N.pl3   1  UNL1       -0.3143
      9 H          60.7862   87.8436    9.7801 H       1  UNL1        0.1485
     10 C          61.2357   86.3473   11.2818 C.3     1  UNL1        0.1201
     11 C          62.7253   85.1311    9.5348 C.ar    1  UNL1        0.2225
     12 N          63.7138   84.0553    9.1947 N.ar    1  UNL1       -0.2080
     13 C          64.2011   83.1201   10.2615 C.ar    1  UNL1        0.1316
     14 C          63.6999   83.2606   11.6682 C.ar    1  UNL1        0.1592
     15 F          64.1873   82.3253   12.7349 F       1  UNL1       -0.2025
     16 C          62.7114   84.3363   12.0083 C.ar    1  UNL1        0.0333
     17 C          62.2242   85.2716   10.9416 C.ar    1  UNL1        0.0529
     18 C          61.0419   85.7014    7.6399 C.3     1  UNL1        0.2542
     19 O          62.2380   86.0663    8.4681 O.3     1  UNL1       -0.4563
     20 C          64.8152   92.0078   12.8300 C.3     1  UNL1        0.0582
     21 C          66.2772   92.0366   12.4956 C.ar    1  UNL1        0.0044
     22 C          67.3818   91.4428   13.3186 C.ar    1  UNL1        0.0966
     23 N          68.6784   91.7034   12.6111 N.ar    1  UNL1       -0.2273
     24 C          68.3753   92.4583   11.3508 C.ar    1  UNL1        0.1403
     25 N          69.2589   92.9848   10.2590 N.ar    1  UNL1       -0.3364
     26 C          68.6584   93.7172    9.0959 C.ar    1  UNL1        0.0883
     27 C          67.1743   93.9231    9.0245 C.ar    1  UNL1        0.0677
     28 C          66.2907   93.3966   10.1163 C.ar    1  UNL1        0.0189
     29 C          66.8912   92.6642   11.2794 C.ar    1  UNL1        0.0331
     30 H          70.2329   92.8497   10.3058 H       1  UNL1        0.1674
     31 N          66.5738   94.6555    7.8613 N.am    1  UNL1       -0.2827
     32 C          66.2764   96.1216    7.9707 C.2     1  UNL1        0.2266
     33 C          65.6759   96.8540    6.8075 C.3     1  UNL1        0.0949
     34 O          66.5796   96.8554    9.2434 O.2     1  UNL1       -0.2748
     35 H          66.3748   94.1739    7.0260 H       1  UNL1        0.1549
@<TRIPOS>BOND
     1    18    19    1
     2    19    11    1
     3    11    12   ar
     4    12    13   ar
     5    13    14   ar
     6    14    15    1
     7    14    16   ar
     8    16    17   ar
     9    17    10    1
    10    10     8    1
    11     8     1    1
    12     1     2   ar
    13     2     3   ar
    14     3     4   ar
    15     4    20    1
    16    20    21    1
    17    21    22   ar
    18    22    23   ar
    19    23    24   ar
    20    24    25   ar
    21    25    26   ar
    22    26    27   ar
    23    27    31    1
    24    31    32   am
    25    32    33    1
    26    32    34    2
    27    27    28   ar
    28    28    29   ar
    29     4     5   ar
    30     5     6    1
    31     5     7   ar
    32    17    11   ar
    33     7     1   ar
    34    29    21   ar
    35    29    24    1
    36     8     9    1
    37    25    30    1
    38    31    35    1
@<TRIPOS>MOLECULE
*****
 35 38 0 0 0
SMALL
GASTEIGER

@<TRIPOS>ATOM
      1 C          63.4660   84.5328   15.4322 C.ar    1  UNL1        0.1311
      2 C          64.4566   85.1860   14.5147 C.ar    1  UNL1        0.0339
      3 C          64.6474   86.6733   14.5536 C.ar    1  UNL1        0.0027
      4 C          63.8477   87.5073   15.5100 C.ar    1  UNL1        0.0283
      5 C          62.8570   86.8541   16.4275 C.ar    1  UNL1        0.2196
      6 F          62.0572   87.6881   17.3839 F       1  UNL1       -0.1835
      7 N          62.6662   85.3668   16.3886 N.ar    1  UNL1       -0.2035
      8 N          63.2751   83.0455   15.3934 N.pl3   1  UNL1       -0.3143
      9 H          63.8602   82.4600   15.9264 H       1  UNL1        0.1485
     10 C          62.1927   82.4501   14.5425 C.3     1  UNL1        0.1201
     11 C          62.8349   82.9245   12.0701 C.ar    1  UNL1        0.2225
     12 N          63.1534   82.4251   10.6920 N.ar    1  UNL1       -0.2080
     13 C          63.1484   80.9522   10.4082 C.ar    1  UNL1        0.1316
     14 C          62.8248   79.9787   11.5024 C.ar    1  UNL1        0.1592
     15 F          62.8198   78.5057   11.2185 F       1  UNL1       -0.2025
     16 C          62.5062   80.4780   12.8805 C.ar    1  UNL1        0.0333
     17 C          62.5113   81.9509   13.1644 C.ar    1  UNL1        0.0529
     18 C          62.1769   85.3471   11.4010 C.3     1  UNL1        0.2542
     19 O          62.8399   84.3974   12.3539 O.3     1  UNL1       -0.4563
     20 C          64.0385   88.9947   15.5488 C.3     1  UNL1        0.0582
     21 C          63.8978   89.8020   14.2924 C.ar    1  UNL1        0.0044
     22 C          62.7628   89.7214   13.3151 C.ar    1  UNL1        0.0966
     23 N          63.0310   90.7012   12.2115 N.ar    1  UNL1       -0.2273
     24 C          64.3318   91.3873   12.5067 C.ar    1  UNL1        0.1403
     25 N          65.0977   92.4463   11.7706 N.ar    1  UNL1       -0.3364
     26 C          66.3993   92.9496   12.3206 C.ar    1  UNL1        0.0883
     27 C          66.9350   92.3938   13.6067 C.ar    1  UNL1        0.0677
     28 C          66.1692   91.3348   14.3428 C.ar    1  UNL1        0.0189
     29 C          64.8676   90.8316   13.7928 C.ar    1  UNL1        0.0331
     30 H          64.7460   92.8111   10.9265 H       1  UNL1        0.1674
     31 N          68.2367   92.8971   14.1567 N.am    1  UNL1       -0.2827
     32 C          68.3084   93.4079   15.5652 C.2     1  UNL1        0.2266
     33 C          69.6100   93.9112   16.1151 C.3     1  UNL1        0.0949
     34 O          67.0784   93.4155   16.4237 O.2     1  UNL1       -0.2748
     35 H          69.0439   92.8922   13.5932 H       1  UNL1        0.1549
@<TRIPOS>BOND
     1    18    19    1
     2    19    11    1
     3    11    12   ar
     4    12    13   ar
     5    13    14   ar
     6    14    15    1
     7    14    16   ar
     8    16    17   ar
     9    17    10    1
    10    10     8    1
    11     8     1    1
    12     1     2   ar
    13     2     3   ar
    14     3     4   ar
    15     4    20    1
    16    20    21    1
    17    21    22   ar
    18    22    23   ar
    19    23    24   ar
    20    24    25   ar
    21    25    26   ar
    22    26    27   ar
    23    27    31    1
    24    31    32   am
    25    32    33    1
    26    32    34    2
    27    27    28   ar
    28    28    29   ar
    29     4     5   ar
    30     5     6    1
    31     5     7   ar
    32    17    11   ar
    33     7     1   ar
    34    29    21   ar
    35    29    24    1
    36     8     9    1
    37    25    30    1
    38    31    35    1
