@<TRIPOS>MOLECULE
*****
 34 38 0 0 0
SMALL
GASTEIGER

@<TRIPOS>ATOM
      1 N          62.4664   87.4086   11.9006 N.3     1  UNL1       -0.2641
      2 C          62.8219   88.8251   11.5584 C.3     1  UNL1        0.0981
      3 C          62.4038   89.4058   10.2401 C.3     1  UNL1        0.0224
      4 C          62.7593   90.8223    9.8979 C.3     1  UNL1        0.0065
      5 C          63.5329   91.6581   10.8740 C.3     1  UNL1        0.0277
      6 C          63.9510   91.0775   12.1923 C.ar    1  UNL1       -0.0073
      7 C          64.7247   91.9133   13.1685 C.ar    1  UNL1       -0.0015
      8 C          65.1428   91.3327   14.4868 C.ar    1  UNL1        0.0203
      9 C          64.7873   89.9162   14.8290 C.ar    1  UNL1        0.0985
     10 N          64.0137   89.0803   13.8529 N.ar    1  UNL1       -0.2471
     11 C          63.5955   89.6610   12.5345 C.ar    1  UNL1        0.0695
     12 C          61.1322   86.8524   11.4999 C.3     1  UNL1        0.0994
     13 C          61.4817   85.5990    7.7506 C.ar    1  UNL1       -0.0069
     14 C          60.2099   86.1268    7.1556 C.ar    1  UNL1       -0.0030
     15 C          59.2456   86.8965    8.0086 C.ar    1  UNL1       -0.0006
     16 C          59.5531   87.1383    9.4567 C.ar    1  UNL1       -0.0029
     17 C          60.8248   86.6105   10.0518 C.ar    1  UNL1       -0.0064
     18 C          61.7892   85.8409    9.1987 C.ar    1  UNL1       -0.0058
     19 N          61.9655   84.1469    5.6512 N.3     1  UNL1       -0.3175
     20 C          62.4460   84.8294    6.8976 C.3     1  UNL1        0.0922
     21 H          62.7483   83.6751    5.1985 H       1  UNL1        0.1192
     22 H          61.5718   84.8398    5.0145 H       1  UNL1        0.1192
     23 C          63.4450   86.5483   12.6436 C.3     1  UNL1        0.0888
     24 C          63.0732   85.1455   13.0233 C.3     1  UNL1        0.0748
     25 C          63.2645   84.0272   12.0421 C.3     1  UNL1        0.0432
     26 C          62.8927   82.6244   12.4218 C.ar    1  UNL1       -0.0234
     27 C          63.0840   81.5061   11.4407 C.ar    1  UNL1       -0.0045
     28 C          62.7121   80.1035   11.8204 C.ar    1  UNL1       -0.0003
     29 C          62.1490   79.8191   13.1813 C.ar    1  UNL1       -0.0003
     30 C          61.9577   80.9374   14.1625 C.ar    1  UNL1       -0.0032
     31 C          62.3295   82.3401   13.7827 C.ar    1  UNL1       -0.0103
     32 C          62.1382   83.4585   14.7639 C.3     1  UNL1        0.0953
     33 N          62.5100   84.8612   14.3842 N.3     1  UNL1       -0.2934
     34 H          63.2046   85.1753   15.0618 H       1  UNL1        0.1236
@<TRIPOS>BOND
     1    19    20    1
     2    20    13    1
     3    13    14   ar
     4    14    15   ar
     5    15    16   ar
     6    16    17   ar
     7    17    12    1
     8    12     1    1
     9     1    23    1
    10    24    23    1
    11    24    25    1
    12    25    26    1
    13    26    27   ar
    14    27    28   ar
    15    28    29   ar
    16    29    30   ar
    17    30    31   ar
    18    31    32    1
    19    32    33    1
    20     2     1    1
    21     2     3    1
    22     3     4    1
    23     4     5    1
    24     5     6    1
    25     6     7   ar
    26     7     8   ar
    27     8     9   ar
    28     9    10   ar
    29    10    11   ar
    30    17    18   ar
    31    18    13   ar
    32    33    24    1
    33    11     2    1
    34    31    26   ar
    35    11     6   ar
    36    19    21    1
    37    19    22    1
    38    33    34    1
@<TRIPOS>MOLECULE
*****
 34 38 0 0 0
SMALL
GASTEIGER

@<TRIPOS>ATOM
      1 N          64.0110   90.1377   13.7782 N.3     1  UNL1       -0.2641
      2 C          64.9173   91.3154   13.9815 C.3     1  UNL1        0.0981
      3 C          65.4795   91.6031   15.3421 C.3     1  UNL1        0.0224
      4 C          66.3859   92.7809   15.5454 C.3     1  UNL1        0.0065
      5 C          66.7301   93.6710   14.3882 C.3     1  UNL1        0.0277
      6 C          66.1679   93.3833   13.0276 C.ar    1  UNL1       -0.0073
      7 C          66.5120   94.2735   11.8703 C.ar    1  UNL1       -0.0015
      8 C          65.9498   93.9858   10.5098 C.ar    1  UNL1        0.0203
      9 C          65.0435   92.8080   10.3065 C.ar    1  UNL1        0.0985
     10 N          64.6993   91.9179   11.4637 N.ar    1  UNL1       -0.2471
     11 C          65.2615   92.2056   12.8243 C.ar    1  UNL1        0.0695
     12 C          64.5627   88.7449   13.8535 C.3     1  UNL1        0.0994
     13 C          63.7233   85.3761   15.7762 C.ar    1  UNL1       -0.0069
     14 C          63.0982   85.9133   17.0295 C.ar    1  UNL1       -0.0030
     15 C          62.9612   87.3942   17.2241 C.ar    1  UNL1       -0.0006
     16 C          63.4494   88.3381   16.1654 C.ar    1  UNL1       -0.0029
     17 C          64.0745   87.8010   14.9122 C.ar    1  UNL1       -0.0064
     18 C          64.2115   86.3200   14.7175 C.ar    1  UNL1       -0.0058
     19 N          62.6353   83.0341   15.4913 N.3     1  UNL1       -0.3175
     20 C          63.8602   83.8951   15.5816 C.3     1  UNL1        0.0922
     21 H          62.9125   82.0612   15.3602 H       1  UNL1        0.1192
     22 H          62.0658   83.3349   14.7004 H       1  UNL1        0.1192
     23 C          62.5529   90.3527   13.4996 C.3     1  UNL1        0.0888
     24 C          61.9363   89.7890   12.2537 C.3     1  UNL1        0.0748
     25 C          62.4195   88.4797   11.7039 C.3     1  UNL1        0.0432
     26 C          61.8029   87.9161   10.4580 C.ar    1  UNL1       -0.0234
     27 C          62.2861   86.6068    9.9082 C.ar    1  UNL1       -0.0045
     28 C          61.6695   86.0432    8.6624 C.ar    1  UNL1       -0.0003
     29 C          60.5697   86.7889    7.9663 C.ar    1  UNL1       -0.0003
     30 C          60.0865   88.0982    8.5161 C.ar    1  UNL1       -0.0032
     31 C          60.7031   88.6617    9.7619 C.ar    1  UNL1       -0.0103
     32 C          60.2199   89.9711   10.3118 C.3     1  UNL1        0.0953
     33 N          60.8365   90.5347   11.5576 N.3     1  UNL1       -0.2934
     34 H          60.0821   90.6465   12.2349 H       1  UNL1        0.1236
@<TRIPOS>BOND
     1    19    20    1
     2    20    13    1
     3    13    14   ar
     4    14    15   ar
     5    15    16   ar
     6    16    17   ar
     7    17    12    1
     8    12     1    1
     9     1    23    1
    10    24    23    1
    11    24    25    1
    12    25    26    1
    13    26    27   ar
    14    27    28   ar
    15    28    29   ar
    16    29    30   ar
    17    30    31   ar
    18    31    32    1
    19    32    33    1
    20     2     1    1
    21     2     3    1
    22     3     4    1
    23     4     5    1
    24     5     6    1
    25     6     7   ar
    26     7     8   ar
    27     8     9   ar
    28     9    10   ar
    29    10    11   ar
    30    17    18   ar
    31    18    13   ar
    32    33    24    1
    33    11     2    1
    34    31    26   ar
    35    11     6   ar
    36    19    21    1
    37    19    22    1
    38    33    34    1
@<TRIPOS>MOLECULE
*****
 34 38 0 0 0
SMALL
GASTEIGER

@<TRIPOS>ATOM
      1 N          64.0351   90.1170   13.5536 N.3     1  UNL1       -0.2641
      2 C          64.7125   91.3377   13.0049 C.3     1  UNL1        0.0981
      3 C          64.4522   91.7685   11.5919 C.3     1  UNL1        0.0224
      4 C          65.1296   92.9892   11.0431 C.3     1  UNL1        0.0065
      5 C          66.0671   93.7790   11.9074 C.3     1  UNL1        0.0277
      6 C          66.3274   93.3482   13.3204 C.ar    1  UNL1       -0.0073
      7 C          67.2650   94.1381   14.1847 C.ar    1  UNL1       -0.0015
      8 C          67.5253   93.7073   15.5977 C.ar    1  UNL1        0.0203
      9 C          66.8479   92.4866   16.1465 C.ar    1  UNL1        0.0985
     10 N          65.9103   91.6968   15.2822 N.ar    1  UNL1       -0.2471
     11 C          65.6500   92.1275   13.8691 C.ar    1  UNL1        0.0695
     12 C          64.8518   89.0159   14.1625 C.3     1  UNL1        0.0994
     13 C          63.6557   85.5634   15.7116 C.ar    1  UNL1       -0.0069
     14 C          62.9122   86.0393   16.9244 C.ar    1  UNL1       -0.0030
     15 C          62.8153   87.5074   17.2165 C.ar    1  UNL1       -0.0006
     16 C          63.4618   88.4996   16.2958 C.ar    1  UNL1       -0.0029
     17 C          64.2052   88.0237   15.0831 C.ar    1  UNL1       -0.0064
     18 C          64.3022   86.5556   14.7909 C.ar    1  UNL1       -0.0058
     19 N          62.5661   83.2058   15.6449 N.3     1  UNL1       -0.3175
     20 C          63.7526   84.0953   15.4194 C.3     1  UNL1        0.0922
     21 H          62.8081   82.2466   15.3963 H       1  UNL1        0.1192
     22 H          61.7891   83.5218   15.0645 H       1  UNL1        0.1192
     23 C          62.5411   89.9973   13.4936 C.3     1  UNL1        0.0888
     24 C          61.8767   89.5230   12.2351 C.3     1  UNL1        0.0748
     25 C          62.3234   88.2465   11.5864 C.3     1  UNL1        0.0432
     26 C          61.6590   87.7721   10.3280 C.ar    1  UNL1       -0.0234
     27 C          62.1058   86.4956    9.6793 C.ar    1  UNL1       -0.0045
     28 C          61.4413   86.0213    8.4209 C.ar    1  UNL1       -0.0003
     29 C          60.3301   86.8235    7.8113 C.ar    1  UNL1       -0.0003
     30 C          59.8833   88.1000    8.4600 C.ar    1  UNL1       -0.0032
     31 C          60.5478   88.5743    9.7184 C.ar    1  UNL1       -0.0103
     32 C          60.1010   89.8509   10.3672 C.3     1  UNL1        0.0953
     33 N          60.7655   90.3252   11.6255 N.3     1  UNL1       -0.2934
     34 H          60.0350   90.4018   12.3333 H       1  UNL1        0.1236
@<TRIPOS>BOND
     1    19    20    1
     2    20    13    1
     3    13    14   ar
     4    14    15   ar
     5    15    16   ar
     6    16    17   ar
     7    17    12    1
     8    12     1    1
     9     1    23    1
    10    24    23    1
    11    24    25    1
    12    25    26    1
    13    26    27   ar
    14    27    28   ar
    15    28    29   ar
    16    29    30   ar
    17    30    31   ar
    18    31    32    1
    19    32    33    1
    20     2     1    1
    21     2     3    1
    22     3     4    1
    23     4     5    1
    24     5     6    1
    25     6     7   ar
    26     7     8   ar
    27     8     9   ar
    28     9    10   ar
    29    10    11   ar
    30    17    18   ar
    31    18    13   ar
    32    33    24    1
    33    11     2    1
    34    31    26   ar
    35    11     6   ar
    36    19    21    1
    37    19    22    1
    38    33    34    1
@<TRIPOS>MOLECULE
*****
 34 38 0 0 0
SMALL
GASTEIGER

@<TRIPOS>ATOM
      1 N          61.7882   87.7095   11.3849 N.3     1  UNL1       -0.2641
      2 C          62.3441   86.4731   10.7427 C.3     1  UNL1        0.0981
      3 C          62.6182   86.4524    9.2681 C.3     1  UNL1        0.0224
      4 C          63.1740   85.2160    8.6259 C.3     1  UNL1        0.0065
      5 C          63.4558   84.0004    9.4583 C.3     1  UNL1        0.0277
      6 C          63.1818   84.0212   10.9329 C.ar    1  UNL1       -0.0073
      7 C          63.4636   82.8056   11.7653 C.ar    1  UNL1       -0.0015
      8 C          63.1895   82.8263   13.2399 C.ar    1  UNL1        0.0203
      9 C          62.6336   84.0627   13.8821 C.ar    1  UNL1        0.0985
     10 N          62.3518   85.2783   13.0497 N.ar    1  UNL1       -0.2471
     11 C          62.6259   85.2575   11.5750 C.ar    1  UNL1        0.0695
     12 C          60.4212   88.1997   11.0096 C.3     1  UNL1        0.0994
     13 C          59.6584   89.1893    7.2428 C.ar    1  UNL1       -0.0069
     14 C          59.0259   87.9254    6.7402 C.ar    1  UNL1       -0.0030
     15 C          58.8586   86.7529    7.6607 C.ar    1  UNL1       -0.0006
     16 C          59.3237   86.8444    9.0838 C.ar    1  UNL1       -0.0029
     17 C          59.9561   88.1083    9.5865 C.ar    1  UNL1       -0.0064
     18 C          60.1234   89.2808    8.6659 C.ar    1  UNL1       -0.0058
     19 N          58.6340   90.9363    5.6154 N.3     1  UNL1       -0.3175
     20 C          59.8257   90.3617    6.3223 C.3     1  UNL1        0.0922
     21 H          58.9288   91.7218    5.0353 H       1  UNL1        0.1192
     22 H          57.9532   91.2584    6.3033 H       1  UNL1        0.1192
     23 C          62.5993   88.4556   12.4023 C.3     1  UNL1        0.0888
     24 C          63.2949   89.7285   12.0201 C.3     1  UNL1        0.0748
     25 C          64.1853   90.4224   13.0078 C.3     1  UNL1        0.0432
     26 C          64.8808   91.6953   12.6256 C.ar    1  UNL1       -0.0234
     27 C          65.7713   92.3892   13.6133 C.ar    1  UNL1       -0.0045
     28 C          66.4668   93.6620   13.2310 C.ar    1  UNL1       -0.0003
     29 C          66.2718   94.2410   11.8611 C.ar    1  UNL1       -0.0003
     30 C          65.3813   93.5471   10.8734 C.ar    1  UNL1       -0.0032
     31 C          64.6858   92.2743   11.2557 C.ar    1  UNL1       -0.0103
     32 C          63.7953   91.5804   10.2679 C.3     1  UNL1        0.0953
     33 N          63.0999   90.3075   10.6502 N.3     1  UNL1       -0.2934
     34 H          63.4010   89.5960    9.9842 H       1  UNL1        0.1236
@<TRIPOS>BOND
     1    19    20    1
     2    20    13    1
     3    13    14   ar
     4    14    15   ar
     5    15    16   ar
     6    16    17   ar
     7    17    12    1
     8    12     1    1
     9     1    23    1
    10    24    23    1
    11    24    25    1
    12    25    26    1
    13    26    27   ar
    14    27    28   ar
    15    28    29   ar
    16    29    30   ar
    17    30    31   ar
    18    31    32    1
    19    32    33    1
    20     2     1    1
    21     2     3    1
    22     3     4    1
    23     4     5    1
    24     5     6    1
    25     6     7   ar
    26     7     8   ar
    27     8     9   ar
    28     9    10   ar
    29    10    11   ar
    30    17    18   ar
    31    18    13   ar
    32    33    24    1
    33    11     2    1
    34    31    26   ar
    35    11     6   ar
    36    19    21    1
    37    19    22    1
    38    33    34    1
@<TRIPOS>MOLECULE
*****
 34 38 0 0 0
SMALL
GASTEIGER

@<TRIPOS>ATOM
      1 N          63.0035   85.0819   12.9936 N.3     1  UNL1       -0.2641
      2 C          63.2484   83.8841   12.1246 C.3     1  UNL1        0.0981
      3 C          63.9340   84.0457   10.8004 C.3     1  UNL1        0.0224
      4 C          64.1788   82.8478    9.9314 C.3     1  UNL1        0.0065
      5 C          63.7380   81.4883   10.3866 C.3     1  UNL1        0.0277
      6 C          63.0523   81.3267   11.7108 C.ar    1  UNL1       -0.0073
      7 C          62.6114   79.9671   12.1661 C.ar    1  UNL1       -0.0015
      8 C          61.9257   79.8054   13.4904 C.ar    1  UNL1        0.0203
      9 C          61.6809   81.0033   14.3594 C.ar    1  UNL1        0.0985
     10 N          62.1218   82.3628   13.9042 N.ar    1  UNL1       -0.2471
     11 C          62.8075   82.5245   12.5798 C.ar    1  UNL1        0.0695
     12 C          61.8039   85.9499   12.7538 C.3     1  UNL1        0.0994
     13 C          60.7615   86.8961    9.0433 C.ar    1  UNL1       -0.0069
     14 C          61.4166   88.2377    8.8982 C.ar    1  UNL1       -0.0030
     15 C          62.2008   88.8166   10.0383 C.ar    1  UNL1       -0.0006
     16 C          62.3299   88.0540   11.3235 C.ar    1  UNL1       -0.0029
     17 C          61.6748   86.7125   11.4686 C.ar    1  UNL1       -0.0064
     18 C          60.8906   86.1335   10.3285 C.ar    1  UNL1       -0.0058
     19 N          58.5145   86.6207    7.7685 N.3     1  UNL1       -0.3175
     20 C          59.9773   86.3172    7.9032 C.3     1  UNL1        0.0922
     21 H          58.1438   86.1486    6.9438 H       1  UNL1        0.1192
     22 H          58.3837   87.6276    7.6713 H       1  UNL1        0.1192
     23 C          63.9583   85.4118   14.1024 C.3     1  UNL1        0.0888
     24 C          63.8765   86.7415   14.7919 C.3     1  UNL1        0.0748
     25 C          64.4863   87.9552   14.1555 C.3     1  UNL1        0.0432
     26 C          64.4044   89.2848   14.8450 C.ar    1  UNL1       -0.0234
     27 C          65.0143   90.4985   14.2086 C.ar    1  UNL1       -0.0045
     28 C          64.9324   91.8281   14.8981 C.ar    1  UNL1       -0.0003
     29 C          64.2407   91.9440   16.2241 C.ar    1  UNL1       -0.0003
     30 C          63.6308   90.7303   16.8605 C.ar    1  UNL1       -0.0032
     31 C          63.7127   89.4008   16.1710 C.ar    1  UNL1       -0.0103
     32 C          63.1029   88.1870   16.8074 C.3     1  UNL1        0.0953
     33 N          63.1847   86.8574   16.1179 N.3     1  UNL1       -0.2934
     34 H          62.2260   86.5384   15.9787 H       1  UNL1        0.1236
@<TRIPOS>BOND
     1    19    20    1
     2    20    13    1
     3    13    14   ar
     4    14    15   ar
     5    15    16   ar
     6    16    17   ar
     7    17    12    1
     8    12     1    1
     9     1    23    1
    10    24    23    1
    11    24    25    1
    12    25    26    1
    13    26    27   ar
    14    27    28   ar
    15    28    29   ar
    16    29    30   ar
    17    30    31   ar
    18    31    32    1
    19    32    33    1
    20     2     1    1
    21     2     3    1
    22     3     4    1
    23     4     5    1
    24     5     6    1
    25     6     7   ar
    26     7     8   ar
    27     8     9   ar
    28     9    10   ar
    29    10    11   ar
    30    17    18   ar
    31    18    13   ar
    32    33    24    1
    33    11     2    1
    34    31    26   ar
    35    11     6   ar
    36    19    21    1
    37    19    22    1
    38    33    34    1
@<TRIPOS>MOLECULE
*****
 34 38 0 0 0
SMALL
GASTEIGER

@<TRIPOS>ATOM
      1 N          63.1012   85.2817   12.9343 N.3     1  UNL1       -0.2641
      2 C          63.3432   84.0666   12.0888 C.3     1  UNL1        0.0981
      3 C          64.0326   84.2002   10.7634 C.3     1  UNL1        0.0224
      4 C          64.2746   82.9850    9.9180 C.3     1  UNL1        0.0065
      5 C          63.8272   81.6362   10.3979 C.3     1  UNL1        0.0277
      6 C          63.1378   81.5026   11.7234 C.ar    1  UNL1       -0.0073
      7 C          62.6903   80.1537   12.2034 C.ar    1  UNL1       -0.0015
      8 C          62.0009   80.0200   13.5288 C.ar    1  UNL1        0.0203
      9 C          61.7589   81.2352   14.3743 C.ar    1  UNL1        0.0985
     10 N          62.2063   82.5840   13.8943 N.ar    1  UNL1       -0.2471
     11 C          62.8958   82.7177   12.5688 C.ar    1  UNL1        0.0695
     12 C          64.2003   85.8253   13.7983 C.3     1  UNL1        0.0994
     13 C          63.8192   89.4217   15.4326 C.ar    1  UNL1       -0.0069
     14 C          63.3132   89.0604   16.7978 C.ar    1  UNL1       -0.0030
     15 C          63.1029   87.6209   17.1630 C.ar    1  UNL1       -0.0006
     16 C          63.3986   86.5425   16.1632 C.ar    1  UNL1       -0.0029
     17 C          63.9046   86.9037   14.7981 C.ar    1  UNL1       -0.0064
     18 C          64.1149   88.3433   14.4328 C.ar    1  UNL1       -0.0058
     19 N          63.5691   91.3717   13.7341 N.3     1  UNL1       -0.3175
     20 C          64.0295   90.8612   15.0674 C.3     1  UNL1        0.0922
     21 H          63.7909   92.3641   13.6550 H       1  UNL1        0.1192
     22 H          62.5611   91.2407   13.6495 H       1  UNL1        0.1192
     23 C          61.7601   85.9533   12.9158 C.3     1  UNL1        0.0888
     24 C          61.3837   86.8452   11.7699 C.3     1  UNL1        0.0748
     25 C          60.7189   86.2666   10.5561 C.3     1  UNL1        0.0432
     26 C          60.3425   87.1585    9.4103 C.ar    1  UNL1       -0.0234
     27 C          59.6777   86.5799    8.1965 C.ar    1  UNL1       -0.0045
     28 C          59.3013   87.4718    7.0507 C.ar    1  UNL1       -0.0003
     29 C          59.5897   88.9423    7.1187 C.ar    1  UNL1       -0.0003
     30 C          60.2545   89.5208    8.3325 C.ar    1  UNL1       -0.0032
     31 C          60.6309   88.6290    9.4783 C.ar    1  UNL1       -0.0103
     32 C          61.2957   89.2075   10.6921 C.3     1  UNL1        0.0953
     33 N          61.6721   88.3157   11.8379 N.3     1  UNL1       -0.2934
     34 H          61.1870   88.6731   12.6609 H       1  UNL1        0.1236
@<TRIPOS>BOND
     1    19    20    1
     2    20    13    1
     3    13    14   ar
     4    14    15   ar
     5    15    16   ar
     6    16    17   ar
     7    17    12    1
     8    12     1    1
     9     1    23    1
    10    24    23    1
    11    24    25    1
    12    25    26    1
    13    26    27   ar
    14    27    28   ar
    15    28    29   ar
    16    29    30   ar
    17    30    31   ar
    18    31    32    1
    19    32    33    1
    20     2     1    1
    21     2     3    1
    22     3     4    1
    23     4     5    1
    24     5     6    1
    25     6     7   ar
    26     7     8   ar
    27     8     9   ar
    28     9    10   ar
    29    10    11   ar
    30    17    18   ar
    31    18    13   ar
    32    33    24    1
    33    11     2    1
    34    31    26   ar
    35    11     6   ar
    36    19    21    1
    37    19    22    1
    38    33    34    1
@<TRIPOS>MOLECULE
*****
 34 38 0 0 0
SMALL
GASTEIGER

@<TRIPOS>ATOM
      1 N          63.9075   89.4751   14.4663 N.3     1  UNL1       -0.2641
      2 C          63.5593   88.4397   15.4943 C.3     1  UNL1        0.0981
      3 C          63.1743   88.8602   16.8817 C.3     1  UNL1        0.0224
      4 C          62.8261   87.8249   17.9097 C.3     1  UNL1        0.0065
      5 C          62.8629   86.3691   17.5503 C.3     1  UNL1        0.0277
      6 C          63.2480   85.9486   16.1629 C.ar    1  UNL1       -0.0073
      7 C          63.2848   84.4927   15.8035 C.ar    1  UNL1       -0.0015
      8 C          63.6698   84.0722   14.4161 C.ar    1  UNL1        0.0203
      9 C          64.0180   85.1076   13.3881 C.ar    1  UNL1        0.0985
     10 N          63.9812   86.5634   13.7475 N.ar    1  UNL1       -0.2471
     11 C          63.5962   86.9839   15.1349 C.ar    1  UNL1        0.0695
     12 C          65.3452   89.7767   14.1626 C.3     1  UNL1        0.0994
     13 C          66.2359   93.4380   12.9170 C.ar    1  UNL1       -0.0069
     14 C          66.8014   94.0346   14.1717 C.ar    1  UNL1       -0.0030
     15 C          66.8814   93.2119   15.4234 C.ar    1  UNL1       -0.0006
     16 C          66.3960   91.7926   15.4204 C.ar    1  UNL1       -0.0029
     17 C          65.8306   91.1960   14.1657 C.ar    1  UNL1       -0.0064
     18 C          65.7505   92.0187   12.9139 C.ar    1  UNL1       -0.0058
     19 N          65.8441   95.7256   11.7493 N.3     1  UNL1       -0.3175
     20 C          66.1558   94.2607   11.6653 C.3     1  UNL1        0.0922
     21 H          65.8295   96.1244   10.8106 H       1  UNL1        0.1192
     22 H          66.5586   96.1938   12.3066 H       1  UNL1        0.1192
     23 C          62.8181   90.2088   13.7419 C.3     1  UNL1        0.0888
     24 C          62.0285   89.5138   12.6724 C.3     1  UNL1        0.0748
     25 C          62.7142   88.5762   11.7235 C.3     1  UNL1        0.0432
     26 C          61.9246   87.8812   10.6540 C.ar    1  UNL1       -0.0234
     27 C          62.6103   86.9436    9.7051 C.ar    1  UNL1       -0.0045
     28 C          61.8207   86.2487    8.6357 C.ar    1  UNL1       -0.0003
     29 C          60.3454   86.4914    8.5153 C.ar    1  UNL1       -0.0003
     30 C          59.6597   87.4291    9.4643 C.ar    1  UNL1       -0.0032
     31 C          60.4493   88.1240   10.5336 C.ar    1  UNL1       -0.0103
     32 C          59.7636   89.0617   11.4827 C.3     1  UNL1        0.0953
     33 N          60.5532   89.7566   12.5520 N.3     1  UNL1       -0.2934
     34 H          60.1373   89.4910   13.4447 H       1  UNL1        0.1236
@<TRIPOS>BOND
     1    19    20    1
     2    20    13    1
     3    13    14   ar
     4    14    15   ar
     5    15    16   ar
     6    16    17   ar
     7    17    12    1
     8    12     1    1
     9     1    23    1
    10    24    23    1
    11    24    25    1
    12    25    26    1
    13    26    27   ar
    14    27    28   ar
    15    28    29   ar
    16    29    30   ar
    17    30    31   ar
    18    31    32    1
    19    32    33    1
    20     2     1    1
    21     2     3    1
    22     3     4    1
    23     4     5    1
    24     5     6    1
    25     6     7   ar
    26     7     8   ar
    27     8     9   ar
    28     9    10   ar
    29    10    11   ar
    30    17    18   ar
    31    18    13   ar
    32    33    24    1
    33    11     2    1
    34    31    26   ar
    35    11     6   ar
    36    19    21    1
    37    19    22    1
    38    33    34    1
@<TRIPOS>MOLECULE
*****
 34 38 0 0 0
SMALL
GASTEIGER

@<TRIPOS>ATOM
      1 N          63.7487   88.2914   13.7387 N.3     1  UNL1       -0.2641
      2 C          63.2532   88.8370   12.4322 C.3     1  UNL1        0.0981
      3 C          63.5251   90.2656   12.0647 C.3     1  UNL1        0.0224
      4 C          63.0297   90.8112   10.7582 C.3     1  UNL1        0.0065
      5 C          62.2624   89.9283    9.8193 C.3     1  UNL1        0.0277
      6 C          61.9905   88.4997   10.1869 C.ar    1  UNL1       -0.0073
      7 C          61.2232   87.6166    9.2479 C.ar    1  UNL1       -0.0015
      8 C          60.9513   86.1880    9.6155 C.ar    1  UNL1        0.0203
      9 C          61.4467   85.6424   10.9220 C.ar    1  UNL1        0.0985
     10 N          62.2140   86.5254   11.8609 N.ar    1  UNL1       -0.2471
     11 C          62.4859   87.9541   11.4933 C.ar    1  UNL1        0.0695
     12 C          63.4557   89.0215   15.0158 C.3     1  UNL1        0.0994
     13 C          66.3586   91.7273   15.0541 C.ar    1  UNL1       -0.0069
     14 C          65.8845   92.6363   16.1492 C.ar    1  UNL1       -0.0030
     15 C          64.6008   92.3402   16.8664 C.ar    1  UNL1       -0.0006
     16 C          63.7912   91.1353   16.4886 C.ar    1  UNL1       -0.0029
     17 C          64.2653   90.2264   15.3936 C.ar    1  UNL1       -0.0064
     18 C          65.5490   90.5224   14.6763 C.ar    1  UNL1       -0.0058
     19 N          67.6358   92.2652   12.8565 N.3     1  UNL1       -0.3175
     20 C          67.6423   92.0234   14.3369 C.3     1  UNL1        0.0922
     21 H          68.5871   92.4496   12.5380 H       1  UNL1        0.1192
     22 H          67.0448   93.0694   12.6460 H       1  UNL1        0.1192
     23 C          64.5371   87.0157   13.7680 C.3     1  UNL1        0.0888
     24 C          63.8339   85.7035   13.9520 C.3     1  UNL1        0.0748
     25 C          64.0787   84.5799   12.9890 C.3     1  UNL1        0.0432
     26 C          63.3756   83.2677   13.1730 C.ar    1  UNL1       -0.0234
     27 C          63.6204   82.1441   12.2100 C.ar    1  UNL1       -0.0045
     28 C          62.9173   80.8320   12.3940 C.ar    1  UNL1       -0.0003
     29 C          61.9693   80.6435   13.5411 C.ar    1  UNL1       -0.0003
     30 C          61.7244   81.7671   14.5041 C.ar    1  UNL1       -0.0032
     31 C          62.4276   83.0792   14.3201 C.ar    1  UNL1       -0.0103
     32 C          62.1828   84.2029   15.2832 C.3     1  UNL1        0.0953
     33 N          62.8859   85.5150   15.0991 N.3     1  UNL1       -0.2934
     34 H          63.4183   85.6860   15.9522 H       1  UNL1        0.1236
@<TRIPOS>BOND
     1    19    20    1
     2    20    13    1
     3    13    14   ar
     4    14    15   ar
     5    15    16   ar
     6    16    17   ar
     7    17    12    1
     8    12     1    1
     9     1    23    1
    10    24    23    1
    11    24    25    1
    12    25    26    1
    13    26    27   ar
    14    27    28   ar
    15    28    29   ar
    16    29    30   ar
    17    30    31   ar
    18    31    32    1
    19    32    33    1
    20     2     1    1
    21     2     3    1
    22     3     4    1
    23     4     5    1
    24     5     6    1
    25     6     7   ar
    26     7     8   ar
    27     8     9   ar
    28     9    10   ar
    29    10    11   ar
    30    17    18   ar
    31    18    13   ar
    32    33    24    1
    33    11     2    1
    34    31    26   ar
    35    11     6   ar
    36    19    21    1
    37    19    22    1
    38    33    34    1
@<TRIPOS>MOLECULE
*****
 34 38 0 0 0
SMALL
GASTEIGER

@<TRIPOS>ATOM
      1 N          62.0131   87.5359   11.1966 N.3     1  UNL1       -0.2641
      2 C          61.0911   87.2527   10.0478 C.3     1  UNL1        0.0981
      3 C          59.7225   87.8656   10.0159 C.3     1  UNL1        0.0224
      4 C          58.8005   87.5824    8.8671 C.3     1  UNL1        0.0065
      5 C          59.2471   86.6862    7.7503 C.3     1  UNL1        0.0277
      6 C          60.6158   86.0732    7.7823 C.ar    1  UNL1       -0.0073
      7 C          61.0625   85.1770    6.6654 C.ar    1  UNL1       -0.0015
      8 C          62.4311   84.5640    6.6974 C.ar    1  UNL1        0.0203
      9 C          63.3531   84.8473    7.8462 C.ar    1  UNL1        0.0985
     10 N          62.9065   85.7435    8.9630 N.ar    1  UNL1       -0.2471
     11 C          61.5378   86.3565    8.9310 C.ar    1  UNL1        0.0695
     12 C          61.8089   88.7610   12.0377 C.3     1  UNL1        0.0994
     13 C          64.7049   91.1448   13.3344 C.ar    1  UNL1       -0.0069
     14 C          64.9469   91.9854   12.1158 C.ar    1  UNL1       -0.0030
     15 C          64.1430   91.7512   10.8713 C.ar    1  UNL1       -0.0006
     16 C          63.0970   90.6764   10.8453 C.ar    1  UNL1       -0.0029
     17 C          62.8549   89.8358   12.0638 C.ar    1  UNL1       -0.0064
     18 C          63.6589   90.0700   13.3083 C.ar    1  UNL1       -0.0058
     19 N          65.4156   92.6933   15.2956 N.3     1  UNL1       -0.3175
     20 C          65.5088   91.3790   14.5789 C.3     1  UNL1        0.0922
     21 H          66.0241   92.6781   16.1141 H       1  UNL1        0.1192
     22 H          64.4523   92.8520   15.5911 H       1  UNL1        0.1192
     23 C          63.1393   86.5941   11.5043 C.3     1  UNL1        0.0888
     24 C          62.8651   85.3067   12.2237 C.3     1  UNL1        0.0748
     25 C          63.0187   83.9988   11.5055 C.3     1  UNL1        0.0432
     26 C          62.7445   82.7114   12.2249 C.ar    1  UNL1       -0.0234
     27 C          62.8981   81.4035   11.5067 C.ar    1  UNL1       -0.0045
     28 C          62.6239   80.1162   12.2261 C.ar    1  UNL1       -0.0003
     29 C          62.1961   80.1367   13.6636 C.ar    1  UNL1       -0.0003
     30 C          62.0424   81.4446   14.3818 C.ar    1  UNL1       -0.0032
     31 C          62.3166   82.7319   13.6624 C.ar    1  UNL1       -0.0103
     32 C          62.1630   84.0399   14.3806 C.3     1  UNL1        0.0953
     33 N          62.4372   85.3272   13.6612 N.3     1  UNL1       -0.2934
     34 H          63.1742   85.8038   14.1810 H       1  UNL1        0.1236
@<TRIPOS>BOND
     1    19    20    1
     2    20    13    1
     3    13    14   ar
     4    14    15   ar
     5    15    16   ar
     6    16    17   ar
     7    17    12    1
     8    12     1    1
     9     1    23    1
    10    24    23    1
    11    24    25    1
    12    25    26    1
    13    26    27   ar
    14    27    28   ar
    15    28    29   ar
    16    29    30   ar
    17    30    31   ar
    18    31    32    1
    19    32    33    1
    20     2     1    1
    21     2     3    1
    22     3     4    1
    23     4     5    1
    24     5     6    1
    25     6     7   ar
    26     7     8   ar
    27     8     9   ar
    28     9    10   ar
    29    10    11   ar
    30    17    18   ar
    31    18    13   ar
    32    33    24    1
    33    11     2    1
    34    31    26   ar
    35    11     6   ar
    36    19    21    1
    37    19    22    1
    38    33    34    1
