@<TRIPOS>MOLECULE
*****
 28 31 0 0 0
SMALL
GASTEIGER

@<TRIPOS>ATOM
      1 C          61.6539   87.9252   10.6897 C.ar    1  UNL1        0.0527
      2 C          62.5592   87.4506   11.7876 C.ar    1  UNL1        0.1414
      3 F          62.5512   86.0069   12.1947 F       1  UNL1       -0.2043
      4 C          63.4723   88.4196   12.4783 C.ar    1  UNL1        0.0486
      5 C          63.4803   89.8632   12.0712 C.ar    1  UNL1        0.0869
      6 C          62.5750   90.3379   10.9733 C.ar    1  UNL1        0.0486
      7 C          61.6619   89.3689   10.2826 C.ar    1  UNL1        0.1414
      8 F          60.7567   89.8436    9.1848 F       1  UNL1       -0.2043
      9 N          64.3935   90.8323   12.7619 N.ar    1  UNL1       -0.2338
     10 N          64.8428   90.7550   14.1910 N.ar    1  UNL1       -0.1617
     11 C          65.7447   91.9237   14.4570 C.ar    1  UNL1        0.1720
     12 C          65.8527   92.7233   13.1925 C.ar    1  UNL1        0.0443
     13 C          65.0176   92.0487   12.1448 C.ar    1  UNL1        0.0628
     14 C          64.9334   92.6292   10.7643 C.3     1  UNL1        0.0777
     15 C          65.6843   93.8843   10.4315 C.3     1  UNL1        0.1489
     16 O          66.5194   94.5589   11.4791 O.3     1  UNL1       -0.3485
     17 C          66.6036   93.9784   12.8596 C.3     1  UNL1        0.1713
     18 C          66.4200   92.2378   15.7591 C.3     1  UNL1        0.4363
     19 F          67.0952   92.5519   17.0612 F       1  UNL1       -0.1644
     20 F          65.0966   92.6190   16.3535 F       1  UNL1       -0.1644
     21 F          67.7433   91.8567   15.1647 F       1  UNL1       -0.1644
     22 C          60.7408   86.9562    9.9990 C.3     1  UNL1        0.1246
     23 O          59.0432   86.2623    7.2997 O.2     1  UNL1       -0.2749
     24 C          60.4560   85.8463    7.5839 C.2     1  UNL1        0.2259
     25 C          61.3366   85.0385    6.6774 C.3     1  UNL1        0.0870
     26 C          62.6612   84.8581    7.3579 C.3     1  UNL1        0.0311
     27 C          62.5993   85.5545    8.6850 C.3     1  UNL1        0.0942
     28 N          61.2363   86.1653    8.8248 N.am    1  UNL1       -0.2753
@<TRIPOS>BOND
     1    23    24    2
     2    24    25    1
     3    25    26    1
     4    26    27    1
     5    27    28    1
     6    28    22    1
     7    22     1    1
     8     1     2   ar
     9     2     3    1
    10     2     4   ar
    11     4     5   ar
    12     5     9    1
    13     9    10   ar
    14    10    11   ar
    15    11    18    1
    16    18    19    1
    17    18    20    1
    18    18    21    1
    19    11    12   ar
    20    12    13   ar
    21    13    14    1
    22    14    15    1
    23    15    16    1
    24    16    17    1
    25     5     6   ar
    26     6     7   ar
    27     7     8    1
    28    28    24   am
    29     7     1   ar
    30    13     9   ar
    31    17    12    1
@<TRIPOS>MOLECULE
*****
 28 31 0 0 0
SMALL
GASTEIGER

@<TRIPOS>ATOM
      1 C          61.8327   88.4196   10.7784 C.ar    1  UNL1        0.0527
      2 C          62.8453   88.2973   11.8782 C.ar    1  UNL1        0.1414
      3 F          62.9460   87.0254   12.6669 F       1  UNL1       -0.2043
      4 C          63.7571   89.4469   12.1894 C.ar    1  UNL1        0.0486
      5 C          63.6565   90.7188   11.4007 C.ar    1  UNL1        0.0869
      6 C          62.6438   90.8411   10.3008 C.ar    1  UNL1        0.0486
      7 C          61.7320   89.6915    9.9897 C.ar    1  UNL1        0.1414
      8 F          60.7194   89.8138    8.8898 F       1  UNL1       -0.2043
      9 N          64.5684   91.8684   11.7119 N.ar    1  UNL1       -0.2338
     10 N          65.0010   92.9358   10.7508 N.ar    1  UNL1       -0.1617
     11 C          65.9077   93.8795   11.4837 C.ar    1  UNL1        0.1720
     12 C          66.0355   93.3955   12.8977 C.ar    1  UNL1        0.0443
     13 C          65.2077   92.1525   13.0387 C.ar    1  UNL1        0.0628
     14 C          65.1431   91.4400   14.3571 C.3     1  UNL1        0.0777
     15 C          65.9062   91.9705   15.5344 C.3     1  UNL1        0.1489
     16 O          66.7340   93.2134   15.3934 O.3     1  UNL1       -0.3485
     17 C          66.7987   93.9259   14.0751 C.3     1  UNL1        0.1713
     18 C          66.5704   95.0941   10.9044 C.3     1  UNL1        0.4363
     19 F          67.2330   96.3088   10.3250 F       1  UNL1       -0.1644
     20 F          65.7006   95.9735   11.7530 F       1  UNL1       -0.1644
     21 F          67.4402   94.2148   10.0558 F       1  UNL1       -0.1644
     22 C          60.9208   87.2699   10.4672 C.3     1  UNL1        0.1246
     23 O          58.6914   86.7873    8.1335 O.2     1  UNL1       -0.2749
     24 C          60.0931   86.2534    8.1376 C.2     1  UNL1        0.2259
     25 C          60.7162   85.4040    7.0699 C.3     1  UNL1        0.0870
     26 C          62.1261   85.1007    7.4827 C.3     1  UNL1        0.0311
     27 C          62.3744   85.7628    8.8056 C.3     1  UNL1        0.0942
     28 N          61.1179   86.4753    9.2105 N.am    1  UNL1       -0.2753
@<TRIPOS>BOND
     1    23    24    2
     2    24    25    1
     3    25    26    1
     4    26    27    1
     5    27    28    1
     6    28    22    1
     7    22     1    1
     8     1     2   ar
     9     2     3    1
    10     2     4   ar
    11     4     5   ar
    12     5     9    1
    13     9    10   ar
    14    10    11   ar
    15    11    18    1
    16    18    19    1
    17    18    20    1
    18    18    21    1
    19    11    12   ar
    20    12    13   ar
    21    13    14    1
    22    14    15    1
    23    15    16    1
    24    16    17    1
    25     5     6   ar
    26     6     7   ar
    27     7     8    1
    28    28    24   am
    29     7     1   ar
    30    13     9   ar
    31    17    12    1
@<TRIPOS>MOLECULE
*****
 28 31 0 0 0
SMALL
GASTEIGER

@<TRIPOS>ATOM
      1 C          65.2429   92.5579   12.5135 C.ar    1  UNL1        0.0527
      2 C          65.0109   92.5712   11.0316 C.ar    1  UNL1        0.1414
      3 F          65.7128   93.5801   10.1717 F       1  UNL1       -0.2043
      4 C          64.0770   91.5757   10.4097 C.ar    1  UNL1        0.0486
      5 C          63.3751   90.5669   11.2695 C.ar    1  UNL1        0.0869
      6 C          63.6071   90.5535   12.7515 C.ar    1  UNL1        0.0486
      7 C          64.5410   91.5490   13.3734 C.ar    1  UNL1        0.1414
      8 F          64.7729   91.5355   14.8553 F       1  UNL1       -0.2043
      9 N          62.4412   89.5714   10.6475 N.ar    1  UNL1       -0.2338
     10 N          61.4331   89.8589    9.5747 N.ar    1  UNL1       -0.1617
     11 C          60.7203   88.5788    9.2533 C.ar    1  UNL1        0.1720
     12 C          61.2879   87.5001   10.1276 C.ar    1  UNL1        0.0443
     13 C          62.3514   88.1136   10.9893 C.ar    1  UNL1        0.0628
     14 C          63.1008   87.2655   11.9738 C.3     1  UNL1        0.0777
     15 C          62.7865   85.8040   12.0966 C.3     1  UNL1        0.1489
     16 O          61.7230   85.1905   11.2349 O.3     1  UNL1       -0.3485
     17 C          60.9736   86.0386   10.2504 C.3     1  UNL1        0.1713
     18 C          59.6312   88.4074    8.2363 C.3     1  UNL1        0.4363
     19 F          58.5420   88.2361    7.2192 F       1  UNL1       -0.1644
     20 F          60.2134   89.5262    7.4243 F       1  UNL1       -0.1644
     21 F          59.0490   87.2887    9.0482 F       1  UNL1       -0.1644
     22 C          66.1768   93.5534   13.1355 C.3     1  UNL1        0.1246
     23 O          68.7307   91.6132   12.5332 O.2     1  UNL1       -0.2749
     24 C          68.3699   92.2086   13.8618 C.2     1  UNL1        0.2259
     25 C          69.1195   92.0169   15.1467 C.3     1  UNL1        0.0870
     26 C          68.4089   92.7903   16.2178 C.3     1  UNL1        0.0311
     27 C          67.2201   93.4599   15.5948 C.3     1  UNL1        0.0942
     28 N          67.1959   93.1005   14.1386 N.am    1  UNL1       -0.2753
@<TRIPOS>BOND
     1    23    24    2
     2    24    25    1
     3    25    26    1
     4    26    27    1
     5    27    28    1
     6    28    22    1
     7    22     1    1
     8     1     2   ar
     9     2     3    1
    10     2     4   ar
    11     4     5   ar
    12     5     9    1
    13     9    10   ar
    14    10    11   ar
    15    11    18    1
    16    18    19    1
    17    18    20    1
    18    18    21    1
    19    11    12   ar
    20    12    13   ar
    21    13    14    1
    22    14    15    1
    23    15    16    1
    24    16    17    1
    25     5     6   ar
    26     6     7   ar
    27     7     8    1
    28    28    24   am
    29     7     1   ar
    30    13     9   ar
    31    17    12    1
@<TRIPOS>MOLECULE
*****
 28 31 0 0 0
SMALL
GASTEIGER

@<TRIPOS>ATOM
      1 C          62.4303   88.4880   11.4056 C.ar    1  UNL1        0.0527
      2 C          63.3780   88.5465   12.5668 C.ar    1  UNL1        0.1414
      3 F          63.4898   87.3799   13.5031 F       1  UNL1       -0.2043
      4 C          64.2139   89.7715   12.7918 C.ar    1  UNL1        0.0486
      5 C          64.1021   90.9381   11.8556 C.ar    1  UNL1        0.0869
      6 C          63.1544   90.8796   10.6943 C.ar    1  UNL1        0.0486
      7 C          62.3185   89.6546   10.4694 C.ar    1  UNL1        0.1414
      8 F          61.3708   89.5962    9.3081 F       1  UNL1       -0.2043
      9 N          64.9380   92.1631   12.0806 N.ar    1  UNL1       -0.2338
     10 N          65.1844   93.2574   11.0848 N.ar    1  UNL1       -0.1617
     11 C          66.0729   94.2795   11.7296 C.ar    1  UNL1        0.1720
     12 C          66.3757   93.8168   13.1240 C.ar    1  UNL1        0.0443
     13 C          65.6743   92.5088   13.3409 C.ar    1  UNL1        0.0628
     14 C          65.7966   91.8015   14.6580 C.3     1  UNL1        0.0777
     15 C          66.6204   92.4023   15.7582 C.3     1  UNL1        0.1489
     16 O          67.3218   93.7104   15.5413 O.3     1  UNL1       -0.3485
     17 C          67.1994   94.4176   14.2242 C.3     1  UNL1        0.1713
     18 C          66.5712   95.5425   11.0921 C.3     1  UNL1        0.4363
     19 F          67.0696   96.8055   10.4545 F       1  UNL1       -0.1644
     20 F          67.4434   94.7361   10.1762 F       1  UNL1       -0.1644
     21 F          65.6990   96.3490   12.0079 F       1  UNL1       -0.1644
     22 C          61.5944   87.2630   11.1807 C.3     1  UNL1        0.1246
     23 O          62.3908   84.7666   13.1258 O.2     1  UNL1       -0.2749
     24 C          62.6093   84.8337   11.6433 C.2     1  UNL1        0.2259
     25 C          63.2322   83.7653   10.7947 C.3     1  UNL1        0.0870
     26 C          63.2511   84.2524    9.3760 C.3     1  UNL1        0.0311
     27 C          62.6399   85.6219    9.3479 C.3     1  UNL1        0.0942
     28 N          62.2432   85.9813   10.7492 N.am    1  UNL1       -0.2753
@<TRIPOS>BOND
     1    23    24    2
     2    24    25    1
     3    25    26    1
     4    26    27    1
     5    27    28    1
     6    28    22    1
     7    22     1    1
     8     1     2   ar
     9     2     3    1
    10     2     4   ar
    11     4     5   ar
    12     5     9    1
    13     9    10   ar
    14    10    11   ar
    15    11    18    1
    16    18    19    1
    17    18    20    1
    18    18    21    1
    19    11    12   ar
    20    12    13   ar
    21    13    14    1
    22    14    15    1
    23    15    16    1
    24    16    17    1
    25     5     6   ar
    26     6     7   ar
    27     7     8    1
    28    28    24   am
    29     7     1   ar
    30    13     9   ar
    31    17    12    1
@<TRIPOS>MOLECULE
*****
 28 31 0 0 0
SMALL
GASTEIGER

@<TRIPOS>ATOM
      1 C          61.2857   88.2053   11.3046 C.ar    1  UNL1        0.0527
      2 C          62.4554   87.6330   12.0490 C.ar    1  UNL1        0.1414
      3 F          62.5649   86.1504   12.2483 F       1  UNL1       -0.2043
      4 C          63.5156   88.5434   12.5941 C.ar    1  UNL1        0.0486
      5 C          63.4062   90.0260   12.3948 C.ar    1  UNL1        0.0869
      6 C          62.2363   90.5983   11.6503 C.ar    1  UNL1        0.0486
      7 C          61.1761   89.6879   11.1052 C.ar    1  UNL1        0.1414
      8 F          60.0064   90.2603   10.3608 F       1  UNL1       -0.2043
      9 N          64.4664   90.9364   12.9399 N.ar    1  UNL1       -0.2338
     10 N          65.0921   90.8459   14.3001 N.ar    1  UNL1       -0.1617
     11 C          66.0994   91.9507   14.4213 C.ar    1  UNL1        0.1720
     12 C          66.0962   92.7240   13.1360 C.ar    1  UNL1        0.0443
     13 C          65.0869   92.0971   12.2205 C.ar    1  UNL1        0.0628
     14 C          64.8633   92.6642   10.8499 C.3     1  UNL1        0.0777
     15 C          65.6491   93.8582   10.3950 C.3     1  UNL1        0.1489
     16 O          66.6584   94.4851   11.3106 O.3     1  UNL1       -0.3485
     17 C          66.8820   93.9180   12.6811 C.3     1  UNL1        0.1713
     18 C          66.9591   92.2327   15.6178 C.3     1  UNL1        0.4363
     19 F          67.8188   92.5147   16.8142 F       1  UNL1       -0.1644
     20 F          68.1657   91.7604   14.8622 F       1  UNL1       -0.1644
     21 F          65.7525   92.7051   16.3734 F       1  UNL1       -0.1644
     22 C          60.2254   87.2949   10.7594 C.3     1  UNL1        0.1246
     23 O          62.6555   85.5200    9.4968 O.2     1  UNL1       -0.2749
     24 C          61.4317   85.9860    8.7652 C.2     1  UNL1        0.2259
     25 C          61.1101   85.7181    7.3249 C.3     1  UNL1        0.0870
     26 C          59.7942   86.3683    7.0150 C.3     1  UNL1        0.0311
     27 C          59.3027   87.0381    8.2638 C.3     1  UNL1        0.0942
     28 N          60.3147   86.8019    9.3456 N.am    1  UNL1       -0.2753
@<TRIPOS>BOND
     1    23    24    2
     2    24    25    1
     3    25    26    1
     4    26    27    1
     5    27    28    1
     6    28    22    1
     7    22     1    1
     8     1     2   ar
     9     2     3    1
    10     2     4   ar
    11     4     5   ar
    12     5     9    1
    13     9    10   ar
    14    10    11   ar
    15    11    18    1
    16    18    19    1
    17    18    20    1
    18    18    21    1
    19    11    12   ar
    20    12    13   ar
    21    13    14    1
    22    14    15    1
    23    15    16    1
    24    16    17    1
    25     5     6   ar
    26     6     7   ar
    27     7     8    1
    28    28    24   am
    29     7     1   ar
    30    13     9   ar
    31    17    12    1
@<TRIPOS>MOLECULE
*****
 28 31 0 0 0
SMALL
GASTEIGER

@<TRIPOS>ATOM
      1 C          63.2514   89.8553   12.3033 C.ar    1  UNL1        0.0527
      2 C          62.5638   89.1268   11.1869 C.ar    1  UNL1        0.1414
      3 F          61.9220   89.8977   10.0716 F       1  UNL1       -0.2043
      4 C          62.5180   87.6275   11.1856 C.ar    1  UNL1        0.0486
      5 C          63.1597   86.8566   12.3009 C.ar    1  UNL1        0.0869
      6 C          63.8473   87.5851   13.4174 C.ar    1  UNL1        0.0486
      7 C          63.8932   89.0844   13.4186 C.ar    1  UNL1        0.1414
      8 F          64.5808   89.8127   14.5351 F       1  UNL1       -0.2043
      9 N          63.1139   85.3573   12.2996 N.ar    1  UNL1       -0.2338
     10 N          63.2475   84.4721   11.0961 N.ar    1  UNL1       -0.1617
     11 C          63.1426   83.0477   11.5545 C.ar    1  UNL1        0.1720
     12 C          62.9441   83.0526   13.0413 C.ar    1  UNL1        0.0443
     13 C          62.9263   84.4800   13.5018 C.ar    1  UNL1        0.0628
     14 C          62.7417   84.7966   14.9564 C.3     1  UNL1        0.0777
     15 C          62.5749   83.6857   15.9503 C.3     1  UNL1        0.1489
     16 O          62.5926   82.2582   15.4897 O.3     1  UNL1       -0.3485
     17 C          62.7772   81.9417   14.0352 C.3     1  UNL1        0.1713
     18 C          63.2221   81.8319   10.6796 C.3     1  UNL1        0.4363
     19 F          63.3018   80.6160    9.8047 F       1  UNL1       -0.1644
     20 F          64.3459   82.4596    9.9094 F       1  UNL1       -0.1644
     21 F          62.0984   81.2042   11.4497 F       1  UNL1       -0.1644
     22 C          63.2972   91.3546   12.3045 C.3     1  UNL1        0.1246
     23 O          65.4981   92.6209   14.3545 O.2     1  UNL1       -0.2749
     24 C          65.5701   92.6487   12.8566 C.2     1  UNL1        0.2259
     25 C          66.6663   93.2634   12.0379 C.3     1  UNL1        0.0870
     26 C          66.3323   93.0613   10.5895 C.3     1  UNL1        0.0311
     27 C          65.0296   92.3216   10.5131 C.3     1  UNL1        0.0942
     28 N          64.5584   92.0666   11.9142 N.am    1  UNL1       -0.2753
@<TRIPOS>BOND
     1    23    24    2
     2    24    25    1
     3    25    26    1
     4    26    27    1
     5    27    28    1
     6    28    22    1
     7    22     1    1
     8     1     2   ar
     9     2     3    1
    10     2     4   ar
    11     4     5   ar
    12     5     9    1
    13     9    10   ar
    14    10    11   ar
    15    11    18    1
    16    18    19    1
    17    18    20    1
    18    18    21    1
    19    11    12   ar
    20    12    13   ar
    21    13    14    1
    22    14    15    1
    23    15    16    1
    24    16    17    1
    25     5     6   ar
    26     6     7   ar
    27     7     8    1
    28    28    24   am
    29     7     1   ar
    30    13     9   ar
    31    17    12    1
@<TRIPOS>MOLECULE
*****
 28 31 0 0 0
SMALL
GASTEIGER

@<TRIPOS>ATOM
      1 C          65.1704   92.0913   13.1759 C.ar    1  UNL1        0.0527
      2 C          64.9442   90.9436   14.1148 C.ar    1  UNL1        0.1414
      3 F          65.4467   91.0188   15.5261 F       1  UNL1       -0.2043
      4 C          64.2154   89.7206   13.6424 C.ar    1  UNL1        0.0486
      5 C          63.7128   89.6452   12.2312 C.ar    1  UNL1        0.0869
      6 C          63.9390   90.7930   11.2922 C.ar    1  UNL1        0.0486
      7 C          64.6678   92.0160   11.7646 C.ar    1  UNL1        0.1414
      8 F          64.8940   93.1637   10.8257 F       1  UNL1       -0.2043
      9 N          62.9840   88.4222   11.7587 N.ar    1  UNL1       -0.2338
     10 N          63.2158   87.0188   12.2349 N.ar    1  UNL1       -0.1617
     11 C          62.2705   86.1172   11.4977 C.ar    1  UNL1        0.1720
     12 C          61.4546   86.9634   10.5659 C.ar    1  UNL1        0.0443
     13 C          61.8955   88.3880   10.7272 C.ar    1  UNL1        0.0628
     14 C          61.2490   89.4699    9.9140 C.3     1  UNL1        0.0777
     15 C          60.1615   89.1273    8.9395 C.3     1  UNL1        0.1489
     16 O          59.7205   87.7027    8.7781 O.3     1  UNL1       -0.3485
     17 C          60.3670   86.6207    9.5913 C.3     1  UNL1        0.1713
     18 C          62.1605   84.6304   11.6631 C.3     1  UNL1        0.4363
     19 F          62.0504   83.1436   11.8285 F       1  UNL1       -0.1644
     20 F          62.2381   84.4591   10.1750 F       1  UNL1       -0.1644
     21 F          62.0829   84.8018   13.1512 F       1  UNL1       -0.1644
     22 C          65.8992   93.3143   13.6483 C.3     1  UNL1        0.1246
     23 O          68.5195   91.6281   12.6788 O.2     1  UNL1       -0.2749
     24 C          68.3916   92.3994   13.9589 C.2     1  UNL1        0.2259
     25 C          69.4454   92.5311   15.0180 C.3     1  UNL1        0.0870
     26 C          68.8924   93.3876   16.1183 C.3     1  UNL1        0.0311
     27 C          67.4966   93.7852   15.7392 C.3     1  UNL1        0.0942
     28 N          67.1870   93.1745   14.4045 N.am    1  UNL1       -0.2753
@<TRIPOS>BOND
     1    23    24    2
     2    24    25    1
     3    25    26    1
     4    26    27    1
     5    27    28    1
     6    28    22    1
     7    22     1    1
     8     1     2   ar
     9     2     3    1
    10     2     4   ar
    11     4     5   ar
    12     5     9    1
    13     9    10   ar
    14    10    11   ar
    15    11    18    1
    16    18    19    1
    17    18    20    1
    18    18    21    1
    19    11    12   ar
    20    12    13   ar
    21    13    14    1
    22    14    15    1
    23    15    16    1
    24    16    17    1
    25     5     6   ar
    26     6     7   ar
    27     7     8    1
    28    28    24   am
    29     7     1   ar
    30    13     9   ar
    31    17    12    1
@<TRIPOS>MOLECULE
*****
 28 31 0 0 0
SMALL
GASTEIGER

@<TRIPOS>ATOM
      1 C          62.5304   87.2764   11.9156 C.ar    1  UNL1        0.0527
      2 C          63.4046   87.1998   13.1321 C.ar    1  UNL1        0.1414
      3 F          63.4842   85.9255   13.9194 F       1  UNL1       -0.2043
      4 C          64.1992   88.3975   13.5613 C.ar    1  UNL1        0.0486
      5 C          64.1197   89.6718   12.7741 C.ar    1  UNL1        0.0869
      6 C          63.2454   89.7484   11.5575 C.ar    1  UNL1        0.0486
      7 C          62.4508   88.5507   11.1283 C.ar    1  UNL1        0.1414
      8 F          61.5766   88.6274    9.9118 F       1  UNL1       -0.2043
      9 N          64.9143   90.8694   13.2033 N.ar    1  UNL1       -0.2338
     10 N          65.5774   91.0562   14.5357 N.ar    1  UNL1       -0.1617
     11 C          66.2582   92.3928   14.5312 C.ar    1  UNL1        0.1720
     12 C          66.0158   93.0321   13.1961 C.ar    1  UNL1        0.0443
     13 C          65.1852   92.0905   12.3753 C.ar    1  UNL1        0.0628
     14 C          64.7830   92.4668   10.9801 C.3     1  UNL1        0.0777
     15 C          65.2113   93.7845   10.4057 C.3     1  UNL1        0.1489
     16 O          66.0419   94.7260   11.2265 O.3     1  UNL1       -0.3485
     17 C          66.4442   94.3498   12.6216 C.3     1  UNL1        0.1713
     18 C          67.0435   92.9861   15.6632 C.3     1  UNL1        0.4363
     19 F          67.8287   93.5793   16.7953 F       1  UNL1       -0.1644
     20 F          65.8368   92.8925   16.5494 F       1  UNL1       -0.1644
     21 F          68.2501   93.0797   14.7771 F       1  UNL1       -0.1644
     22 C          61.7358   86.0788   11.4864 C.3     1  UNL1        0.1246
     23 O          63.2459   85.4536    8.6618 O.2     1  UNL1       -0.2749
     24 C          63.1319   84.5159    9.8270 C.2     1  UNL1        0.2259
     25 C          63.6919   83.1262    9.8984 C.3     1  UNL1        0.0870
     26 C          63.3439   82.5546   11.2409 C.3     1  UNL1        0.0311
     27 C          62.5688   83.5911   11.9992 C.3     1  UNL1        0.0942
     28 N          62.4377   84.8033   11.1254 N.am    1  UNL1       -0.2753
@<TRIPOS>BOND
     1    23    24    2
     2    24    25    1
     3    25    26    1
     4    26    27    1
     5    27    28    1
     6    28    22    1
     7    22     1    1
     8     1     2   ar
     9     2     3    1
    10     2     4   ar
    11     4     5   ar
    12     5     9    1
    13     9    10   ar
    14    10    11   ar
    15    11    18    1
    16    18    19    1
    17    18    20    1
    18    18    21    1
    19    11    12   ar
    20    12    13   ar
    21    13    14    1
    22    14    15    1
    23    15    16    1
    24    16    17    1
    25     5     6   ar
    26     6     7   ar
    27     7     8    1
    28    28    24   am
    29     7     1   ar
    30    13     9   ar
    31    17    12    1
@<TRIPOS>MOLECULE
*****
 28 31 0 0 0
SMALL
GASTEIGER

@<TRIPOS>ATOM
      1 C          63.4452   89.7736   12.7138 C.ar    1  UNL1        0.0527
      2 C          62.6837   89.0957   11.6135 C.ar    1  UNL1        0.1414
      3 F          62.0904   89.9083   10.5010 F       1  UNL1       -0.2043
      4 C          62.5154   87.6052   11.6257 C.ar    1  UNL1        0.0486
      5 C          63.1087   86.7926   12.7381 C.ar    1  UNL1        0.0869
      6 C          63.8702   87.4704   13.8385 C.ar    1  UNL1        0.0486
      7 C          64.0385   88.9609   13.8262 C.ar    1  UNL1        0.1414
      8 F          64.8000   89.6387   14.9265 F       1  UNL1       -0.2043
      9 N          62.9404   85.3021   12.7504 N.ar    1  UNL1       -0.2338
     10 N          62.3833   84.4869   13.8796 N.ar    1  UNL1       -0.1617
     11 C          62.3984   83.0461   13.4626 C.ar    1  UNL1        0.1720
     12 C          62.9648   82.9708   12.0757 C.ar    1  UNL1        0.0443
     13 C          63.2998   84.3651   11.6355 C.ar    1  UNL1        0.0628
     14 C          63.8887   84.6014   10.2764 C.3     1  UNL1        0.0777
     15 C          64.1427   83.4434    9.3574 C.3     1  UNL1        0.1489
     16 O          63.8077   82.0491    9.7976 O.3     1  UNL1       -0.3485
     17 C          63.2187   81.8128   11.1567 C.3     1  UNL1        0.1713
     18 C          61.9294   81.8845   14.2876 C.3     1  UNL1        0.4363
     19 F          61.4604   80.7229   15.1127 F       1  UNL1       -0.1644
     20 F          61.2706   81.2912   13.0777 F       1  UNL1       -0.1644
     21 F          62.5882   82.4778   15.4975 F       1  UNL1       -0.1644
     22 C          63.6134   91.2641   12.7015 C.3     1  UNL1        0.1246
     23 O          66.3983   92.0607   14.2047 O.2     1  UNL1       -0.2749
     24 C          66.1002   92.2434   12.7460 C.2     1  UNL1        0.2259
     25 C          67.0298   92.8244   11.7222 C.3     1  UNL1        0.0870
     26 C          66.3242   92.8174   10.3985 C.3     1  UNL1        0.0311
     27 C          64.9586   92.2320   10.6042 C.3     1  UNL1        0.0942
     28 N          64.8200   91.8773   12.0551 N.am    1  UNL1       -0.2753
@<TRIPOS>BOND
     1    23    24    2
     2    24    25    1
     3    25    26    1
     4    26    27    1
     5    27    28    1
     6    28    22    1
     7    22     1    1
     8     1     2   ar
     9     2     3    1
    10     2     4   ar
    11     4     5   ar
    12     5     9    1
    13     9    10   ar
    14    10    11   ar
    15    11    18    1
    16    18    19    1
    17    18    20    1
    18    18    21    1
    19    11    12   ar
    20    12    13   ar
    21    13    14    1
    22    14    15    1
    23    15    16    1
    24    16    17    1
    25     5     6   ar
    26     6     7   ar
    27     7     8    1
    28    28    24   am
    29     7     1   ar
    30    13     9   ar
    31    17    12    1
