@<TRIPOS>MOLECULE
*****
 29 31 0 0 0
SMALL
GASTEIGER

@<TRIPOS>ATOM
      1 C          62.6928   88.6687   11.5086 C.3     1  UNL1        0.0285
      2 C          63.3547   88.3667   12.8203 C.2     1  UNL1       -0.0154
      3 C          63.8508   89.3777   13.8110 C.2     1  UNL1       -0.0046
      4 C          64.4394   88.6364   14.9747 C.2     1  UNL1        0.0895
      5 N          64.3070   87.1672   14.7032 N.2     1  UNL1       -0.2578
      6 C          63.6366   87.0004   13.3717 C.3     1  UNL1        0.1970
      7 C          63.3061   85.6964   12.7081 C.2     1  UNL1        0.2489
      8 O          61.9907   85.5232   12.0083 O.2     1  UNL1       -0.2726
      9 N          64.2910   84.5657   12.7442 N.am    1  UNL1       -0.3003
     10 H          65.1544   84.6794   13.2035 H       1  UNL1        0.1497
     11 C          63.9607   83.2616   12.0806 C.3     1  UNL1        0.0972
     12 C          64.3485   83.0284   10.6506 C.3     1  UNL1        0.0263
     13 C          63.2424   82.1909   12.8473 C.ar    1  UNL1        0.0351
     14 C          63.8855   81.0767   13.6186 C.ar    1  UNL1        0.1190
     15 N          62.7955   80.2436   14.2252 N.ar    1  UNL1       -0.1679
     16 N          61.4789   80.8429   13.8287 N.ar    1  UNL1       -0.2476
     17 C          60.1239   80.3290   14.2159 C.3     1  UNL1        0.1537
     18 C          61.7551   82.0465   12.9771 C.ar    1  UNL1        0.0940
     19 C          63.7723   90.8684   13.6639 C.3     1  UNL1        0.0552
     20 C          64.7223   91.5829   12.7491 C.ar    1  UNL1        0.0014
     21 C          64.3390   91.8399   11.3219 C.ar    1  UNL1       -0.0009
     22 C          65.2890   92.5544   10.4071 C.ar    1  UNL1        0.0228
     23 C          66.6225   93.0119   10.9196 C.ar    1  UNL1        0.1526
     24 N          67.0059   92.7549   12.3467 N.ar    1  UNL1       -0.2402
     25 C          66.0558   92.0404   13.2615 C.ar    1  UNL1        0.0948
     26 C          67.5726   93.7264   10.0047 C.3     1  UNL1        0.4348
     27 F          68.5226   94.4409    9.0899 F       1  UNL1       -0.1644
     28 F          68.0160   92.4106    9.4374 F       1  UNL1       -0.1644
     29 F          67.1292   95.0423   10.5720 F       1  UNL1       -0.1644
@<TRIPOS>BOND
     1     1     2    1
     2     2     3    2
     3     3    19    1
     4    19    20    1
     5    20    21   ar
     6    21    22   ar
     7    22    23   ar
     8    23    26    1
     9    26    27    1
    10    26    28    1
    11    26    29    1
    12    23    24   ar
    13    24    25   ar
    14     3     4    1
    15     4     5    2
    16     5     6    1
    17     6     7    1
    18     7     8    2
    19     7     9   am
    20     9    11    1
    21    11    12    1
    22    11    13    1
    23    13    14   ar
    24    14    15   ar
    25    15    16   ar
    26    16    17    1
    27    16    18   ar
    28     6     2    1
    29    18    13   ar
    30    25    20   ar
    31     9    10    1
@<TRIPOS>MOLECULE
*****
 29 31 0 0 0
SMALL
GASTEIGER

@<TRIPOS>ATOM
      1 C          63.6014   88.6213   12.7637 C.3     1  UNL1        0.0285
      2 C          62.9051   89.4013   11.6882 C.2     1  UNL1       -0.0154
      3 C          61.8504   88.8757   10.7602 C.2     1  UNL1       -0.0046
      4 C          61.4346   89.9935    9.8504 C.2     1  UNL1        0.0895
      5 N          62.2324   91.2100   10.2162 N.2     1  UNL1       -0.2578
      6 C          63.1412   90.8439   11.3520 C.3     1  UNL1        0.1970
      7 C          64.1152   91.7598   12.0323 C.2     1  UNL1        0.2489
      8 O          64.1492   91.8398   13.5297 O.2     1  UNL1       -0.2726
      9 N          65.0551   92.5956   11.2150 N.am    1  UNL1       -0.3003
     10 H          65.0327   92.5431   10.2322 H       1  UNL1        0.1497
     11 C          66.0290   93.5115   11.8952 C.3     1  UNL1        0.0972
     12 C          66.0033   94.9828   11.6048 C.3     1  UNL1        0.0263
     13 C          67.0288   92.9559   12.8658 C.ar    1  UNL1        0.0351
     14 C          68.0983   91.9521   12.5521 C.ar    1  UNL1        0.1190
     15 N          68.8649   91.6824   13.8129 N.ar    1  UNL1       -0.1679
     16 N          68.2691   92.5194   14.9057 N.ar    1  UNL1       -0.2476
     17 C          68.7276   92.5619   16.3332 C.3     1  UNL1        0.1537
     18 C          67.1342   93.3065   14.3203 C.ar    1  UNL1        0.0940
     19 C          61.3068   87.4778   10.7447 C.3     1  UNL1        0.0552
     20 C          61.4054   86.6485    9.4986 C.ar    1  UNL1        0.0014
     21 C          62.7111   86.0135    9.1216 C.ar    1  UNL1       -0.0009
     22 C          62.8096   85.1843    7.8756 C.ar    1  UNL1        0.0228
     23 C          61.6026   84.9900    7.0065 C.ar    1  UNL1        0.1526
     24 N          60.2970   85.6251    7.3834 N.ar    1  UNL1       -0.2402
     25 C          60.1984   86.4543    8.6295 C.ar    1  UNL1        0.0948
     26 C          61.7012   84.1608    5.7604 C.3     1  UNL1        0.4348
     27 F          61.7998   83.3316    4.5144 F       1  UNL1       -0.1644
     28 F          60.2771   83.7245    5.9380 F       1  UNL1       -0.1644
     29 F          63.1253   84.5970    5.5829 F       1  UNL1       -0.1644
@<TRIPOS>BOND
     1     1     2    1
     2     2     3    2
     3     3    19    1
     4    19    20    1
     5    20    21   ar
     6    21    22   ar
     7    22    23   ar
     8    23    26    1
     9    26    27    1
    10    26    28    1
    11    26    29    1
    12    23    24   ar
    13    24    25   ar
    14     3     4    1
    15     4     5    2
    16     5     6    1
    17     6     7    1
    18     7     8    2
    19     7     9   am
    20     9    11    1
    21    11    12    1
    22    11    13    1
    23    13    14   ar
    24    14    15   ar
    25    15    16   ar
    26    16    17    1
    27    16    18   ar
    28     6     2    1
    29    18    13   ar
    30    25    20   ar
    31     9    10    1
@<TRIPOS>MOLECULE
*****
 29 31 0 0 0
SMALL
GASTEIGER

@<TRIPOS>ATOM
      1 C          63.1928   88.5733   12.6434 C.3     1  UNL1        0.0285
      2 C          62.5503   89.2002   11.4417 C.2     1  UNL1       -0.0154
      3 C          61.5093   88.5665   10.5671 C.2     1  UNL1       -0.0046
      4 C          61.1516   89.5455    9.4884 C.2     1  UNL1        0.0895
      5 N          61.9714   90.7843    9.6963 N.2     1  UNL1       -0.2578
      6 C          62.8359   90.5709   10.9035 C.3     1  UNL1        0.1970
      7 C          63.8141   91.5553   11.4726 C.2     1  UNL1        0.2489
      8 O          63.9426   91.7113   12.9590 O.2     1  UNL1       -0.2726
      9 N          64.6640   92.3839   10.5554 N.am    1  UNL1       -0.3003
     10 H          64.5797   92.2816    9.5799 H       1  UNL1        0.1497
     11 C          65.6422   93.3684   11.1245 C.3     1  UNL1        0.0972
     12 C          65.6894   94.7707   10.5943 C.3     1  UNL1        0.0263
     13 C          66.5734   92.9503   12.2237 C.ar    1  UNL1        0.0351
     14 C          67.6698   91.9329   12.1112 C.ar    1  UNL1        0.1190
     15 N          68.3456   91.8301   13.4464 N.ar    1  UNL1       -0.1679
     16 N          67.6669   92.7841   14.3840 N.ar    1  UNL1       -0.2476
     17 C          68.0212   93.0066   15.8245 C.3     1  UNL1        0.1537
     18 C          66.5716   93.4764   13.6284 C.ar    1  UNL1        0.0940
     19 C          60.9282   87.1946   10.7407 C.3     1  UNL1        0.0552
     20 C          61.8282   86.0299   11.0301 C.ar    1  UNL1        0.0014
     21 C          62.5700   85.3594    9.9120 C.ar    1  UNL1       -0.0009
     22 C          63.4699   84.1948   10.2014 C.ar    1  UNL1        0.0228
     23 C          63.6280   83.7007   11.6088 C.ar    1  UNL1        0.1526
     24 N          62.8862   84.3712   12.7268 N.ar    1  UNL1       -0.2402
     25 C          61.9863   85.5358   12.4375 C.ar    1  UNL1        0.0948
     26 C          64.5280   82.5360   11.8981 C.3     1  UNL1        0.4348
     27 F          65.4279   81.3714   12.1874 F       1  UNL1       -0.1644
     28 F          64.6302   82.9706   13.3301 F       1  UNL1       -0.1644
     29 F          64.4258   82.1014   10.4661 F       1  UNL1       -0.1644
@<TRIPOS>BOND
     1     1     2    1
     2     2     3    2
     3     3    19    1
     4    19    20    1
     5    20    21   ar
     6    21    22   ar
     7    22    23   ar
     8    23    26    1
     9    26    27    1
    10    26    28    1
    11    26    29    1
    12    23    24   ar
    13    24    25   ar
    14     3     4    1
    15     4     5    2
    16     5     6    1
    17     6     7    1
    18     7     8    2
    19     7     9   am
    20     9    11    1
    21    11    12    1
    22    11    13    1
    23    13    14   ar
    24    14    15   ar
    25    15    16   ar
    26    16    17    1
    27    16    18   ar
    28     6     2    1
    29    18    13   ar
    30    25    20   ar
    31     9    10    1
@<TRIPOS>MOLECULE
*****
 29 31 0 0 0
SMALL
GASTEIGER

@<TRIPOS>ATOM
      1 C          63.7797   89.2072   13.7117 C.3     1  UNL1        0.0285
      2 C          63.2822   89.3427   12.3031 C.2     1  UNL1       -0.0154
      3 C          63.3017   90.5950   11.4778 C.2     1  UNL1       -0.0046
      4 C          62.7094   90.2759   10.1372 C.2     1  UNL1        0.0895
      5 N          62.3238   88.8264   10.1339 N.2     1  UNL1       -0.2578
      6 C          62.6778   88.2496   11.4726 C.3     1  UNL1        0.1970
      7 C          62.4648   86.8291   11.9048 C.2     1  UNL1        0.2489
      8 O          61.2686   86.0676   11.4157 O.2     1  UNL1       -0.2726
      9 N          63.4481   86.1700   12.8261 N.am    1  UNL1       -0.3003
     10 H          64.2332   86.6698   13.1471 H       1  UNL1        0.1497
     11 C          63.2352   84.7495   13.2584 C.3     1  UNL1        0.0972
     12 C          62.7931   84.4503   14.6601 C.3     1  UNL1        0.0263
     13 C          63.4645   83.6281   12.2887 C.ar    1  UNL1        0.0351
     14 C          64.4284   83.6395   11.1396 C.ar    1  UNL1        0.1190
     15 N          64.3297   82.3170   10.4387 N.ar    1  UNL1       -0.1679
     16 N          63.3048   81.4883   11.1547 N.ar    1  UNL1       -0.2476
     17 C          62.8878   80.0941   10.7912 C.3     1  UNL1        0.1537
     18 C          62.7700   82.2987   12.2982 C.ar    1  UNL1        0.0940
     19 C          63.8222   91.9318   11.9162 C.3     1  UNL1        0.0552
     20 C          64.9961   92.0112   12.8465 C.ar    1  UNL1        0.0014
     21 C          64.8056   91.7787   14.3161 C.ar    1  UNL1       -0.0009
     22 C          65.9795   91.8581   15.2464 C.ar    1  UNL1        0.0228
     23 C          67.3440   92.1701   14.7071 C.ar    1  UNL1        0.1526
     24 N          67.5346   92.4027   13.2376 N.ar    1  UNL1       -0.2402
     25 C          66.3606   92.3233   12.3073 C.ar    1  UNL1        0.0948
     26 C          68.5180   92.2496   15.6375 C.3     1  UNL1        0.4348
     27 F          69.6919   92.3290   16.5679 F       1  UNL1       -0.1644
     28 F          69.4437   92.3468   14.4612 F       1  UNL1       -0.1644
     29 F          67.5923   92.1524   16.8138 F       1  UNL1       -0.1644
@<TRIPOS>BOND
     1     1     2    1
     2     2     3    2
     3     3    19    1
     4    19    20    1
     5    20    21   ar
     6    21    22   ar
     7    22    23   ar
     8    23    26    1
     9    26    27    1
    10    26    28    1
    11    26    29    1
    12    23    24   ar
    13    24    25   ar
    14     3     4    1
    15     4     5    2
    16     5     6    1
    17     6     7    1
    18     7     8    2
    19     7     9   am
    20     9    11    1
    21    11    12    1
    22    11    13    1
    23    13    14   ar
    24    14    15   ar
    25    15    16   ar
    26    16    17    1
    27    16    18   ar
    28     6     2    1
    29    18    13   ar
    30    25    20   ar
    31     9    10    1
@<TRIPOS>MOLECULE
*****
 29 31 0 0 0
SMALL
GASTEIGER

@<TRIPOS>ATOM
      1 C          63.4826   88.0812   12.9772 C.3     1  UNL1        0.0285
      2 C          62.7301   88.6124   11.7934 C.2     1  UNL1       -0.0154
      3 C          62.4038   90.0525   11.5299 C.2     1  UNL1       -0.0046
      4 C          61.6437   90.1269   10.2388 C.2     1  UNL1        0.0895
      5 N          61.5003   88.7327    9.7044 N.2     1  UNL1       -0.2578
      6 C          62.1717   87.7967   10.6652 C.3     1  UNL1        0.1970
      7 C          62.2678   86.3065   10.5228 C.2     1  UNL1        0.2489
      8 O          61.4534   85.5986    9.4810 O.2     1  UNL1       -0.2726
      9 N          63.1784   85.5243   11.4223 N.am    1  UNL1       -0.3003
     10 H          63.7129   85.9890   12.1061 H       1  UNL1        0.1497
     11 C          63.2745   84.0342   11.2799 C.3     1  UNL1        0.0972
     12 C          63.8014   83.4345   10.0101 C.3     1  UNL1        0.0263
     13 C          62.8438   83.1438   12.4077 C.ar    1  UNL1        0.0351
     14 C          62.7572   83.5320   13.8539 C.ar    1  UNL1        0.1190
     15 N          62.2838   82.3370   14.6271 N.ar    1  UNL1       -0.1679
     16 N          62.0779   81.2102   13.6587 N.ar    1  UNL1       -0.2476
     17 C          61.6084   79.8275   14.0018 C.3     1  UNL1        0.1537
     18 C          62.4240   81.7088   12.2870 C.ar    1  UNL1        0.0940
     19 C          62.7728   91.2143   12.4039 C.3     1  UNL1        0.0552
     20 C          64.2084   91.4530   12.7678 C.ar    1  UNL1        0.0014
     21 C          64.7247   91.0184   14.1074 C.ar    1  UNL1       -0.0009
     22 C          66.1602   91.2571   14.4712 C.ar    1  UNL1        0.0228
     23 C          67.0793   91.9303   13.4955 C.ar    1  UNL1        0.1526
     24 N          66.5629   92.3649   12.1559 N.ar    1  UNL1       -0.2402
     25 C          65.1274   92.1262   11.7921 C.ar    1  UNL1        0.0948
     26 C          68.5148   92.1689   13.8594 C.3     1  UNL1        0.4348
     27 F          69.9503   92.4076   14.2232 F       1  UNL1       -0.1644
     28 F          68.0798   92.9338   15.0742 F       1  UNL1       -0.1644
     29 F          68.9499   91.4041   12.6446 F       1  UNL1       -0.1644
@<TRIPOS>BOND
     1     1     2    1
     2     2     3    2
     3     3    19    1
     4    19    20    1
     5    20    21   ar
     6    21    22   ar
     7    22    23   ar
     8    23    26    1
     9    26    27    1
    10    26    28    1
    11    26    29    1
    12    23    24   ar
    13    24    25   ar
    14     3     4    1
    15     4     5    2
    16     5     6    1
    17     6     7    1
    18     7     8    2
    19     7     9   am
    20     9    11    1
    21    11    12    1
    22    11    13    1
    23    13    14   ar
    24    14    15   ar
    25    15    16   ar
    26    16    17    1
    27    16    18   ar
    28     6     2    1
    29    18    13   ar
    30    25    20   ar
    31     9    10    1
@<TRIPOS>MOLECULE
*****
 29 31 0 0 0
SMALL
GASTEIGER

@<TRIPOS>ATOM
      1 C          63.1465   87.8783   11.8789 C.3     1  UNL1        0.0285
      2 C          63.5208   88.2368   13.2865 C.2     1  UNL1       -0.0154
      3 C          63.6061   89.6243   13.8501 C.2     1  UNL1       -0.0046
      4 C          64.0136   89.5157   15.2896 C.2     1  UNL1        0.0895
      5 N          64.1801   88.0611   15.6157 N.2     1  UNL1       -0.2578
      6 C          63.8755   87.2707   14.3777 C.3     1  UNL1        0.1970
      7 C          63.9182   85.7765   14.2529 C.2     1  UNL1        0.2489
      8 O          65.2028   85.0402   14.4929 O.2     1  UNL1       -0.2726
      9 N          62.6763   85.0185   13.8881 N.am    1  UNL1       -0.3003
     10 H          61.8331   85.5018   13.7305 H       1  UNL1        0.1497
     11 C          62.7188   83.5243   13.7632 C.3     1  UNL1        0.0972
     12 C          62.4321   82.6634   14.9576 C.3     1  UNL1        0.0263
     13 C          63.0482   82.8911   12.4438 C.ar    1  UNL1        0.0351
     14 C          63.8032   83.5368   11.3200 C.ar    1  UNL1        0.1190
     15 N          63.9019   82.5458   10.1983 N.ar    1  UNL1       -0.1679
     16 N          63.2079   81.2877   10.6290 N.ar    1  UNL1       -0.2476
     17 C          63.0664   80.0359    9.8147 C.3     1  UNL1        0.1537
     18 C          62.6802   81.5011   12.0168 C.ar    1  UNL1        0.0940
     19 C          63.3321   90.8969   13.1049 C.3     1  UNL1        0.0552
     20 C          64.4307   91.5654   12.3327 C.ar    1  UNL1        0.0014
     21 C          64.2564   91.8445   10.8693 C.ar    1  UNL1       -0.0009
     22 C          65.3550   92.5129   10.0972 C.ar    1  UNL1        0.0228
     23 C          66.6280   92.9023   10.7886 C.ar    1  UNL1        0.1526
     24 N          66.8023   92.6231   12.2520 N.ar    1  UNL1       -0.2402
     25 C          65.7037   91.9547   13.0241 C.ar    1  UNL1        0.0948
     26 C          67.7267   93.5707   10.0164 C.3     1  UNL1        0.4348
     27 F          68.8252   94.2392    9.2443 F       1  UNL1       -0.1644
     28 F          68.5058   92.2890   10.0152 F       1  UNL1       -0.1644
     29 F          66.9475   94.8525   10.0176 F       1  UNL1       -0.1644
@<TRIPOS>BOND
     1     1     2    1
     2     2     3    2
     3     3    19    1
     4    19    20    1
     5    20    21   ar
     6    21    22   ar
     7    22    23   ar
     8    23    26    1
     9    26    27    1
    10    26    28    1
    11    26    29    1
    12    23    24   ar
    13    24    25   ar
    14     3     4    1
    15     4     5    2
    16     5     6    1
    17     6     7    1
    18     7     8    2
    19     7     9   am
    20     9    11    1
    21    11    12    1
    22    11    13    1
    23    13    14   ar
    24    14    15   ar
    25    15    16   ar
    26    16    17    1
    27    16    18   ar
    28     6     2    1
    29    18    13   ar
    30    25    20   ar
    31     9    10    1
@<TRIPOS>MOLECULE
*****
 29 31 0 0 0
SMALL
GASTEIGER

@<TRIPOS>ATOM
      1 C          63.8575   87.8045   13.5614 C.3     1  UNL1        0.0285
      2 C          63.2280   88.5856   12.4462 C.2     1  UNL1       -0.0154
      3 C          62.4298   88.0155   11.3114 C.2     1  UNL1       -0.0046
      4 C          61.9948   89.1516   10.4340 C.2     1  UNL1        0.0895
      5 N          62.5241   90.4239   11.0264 N.2     1  UNL1       -0.2578
      6 C          63.2863   90.0741   12.2701 C.3     1  UNL1        0.1970
      7 C          63.9842   91.0427   13.1783 C.2     1  UNL1        0.2489
      8 O          64.3751   92.3988   12.6702 O.2     1  UNL1       -0.2726
      9 N          64.2912   90.6552   14.5945 N.am    1  UNL1       -0.3003
     10 H          64.0347   89.7652   14.9279 H       1  UNL1        0.1497
     11 C          64.9891   91.6238   15.5027 C.3     1  UNL1        0.0972
     12 C          64.2813   92.1633   16.7100 C.3     1  UNL1        0.0263
     13 C          66.3950   92.0529   15.2033 C.ar    1  UNL1        0.0351
     14 C          67.2035   91.6506   14.0056 C.ar    1  UNL1        0.1190
     15 N          68.5473   92.3086   14.1113 N.ar    1  UNL1       -0.1679
     16 N          68.5693   93.1176   15.3742 N.ar    1  UNL1       -0.2476
     17 C          69.7196   93.9402   15.8744 C.3     1  UNL1        0.1537
     18 C          67.2391   92.9595   16.0492 C.ar    1  UNL1        0.0940
     19 C          62.1210   86.5641   11.0925 C.3     1  UNL1        0.0552
     20 C          62.0170   86.0214    9.6980 C.ar    1  UNL1        0.0014
     21 C          60.7748   86.2590    8.8914 C.ar    1  UNL1       -0.0009
     22 C          60.6709   85.7163    7.4969 C.ar    1  UNL1        0.0228
     23 C          61.8091   84.9361    6.9090 C.ar    1  UNL1        0.1526
     24 N          63.0512   84.6985    7.7155 N.ar    1  UNL1       -0.2402
     25 C          63.1552   85.2412    9.1100 C.ar    1  UNL1        0.0948
     26 C          61.7051   84.3934    5.5144 C.3     1  UNL1        0.4348
     27 F          61.6011   83.8507    4.1199 F       1  UNL1       -0.1644
     28 F          63.0725   84.9266    5.2049 F       1  UNL1       -0.1644
     29 F          60.3377   83.8602    5.8239 F       1  UNL1       -0.1644
@<TRIPOS>BOND
     1     1     2    1
     2     2     3    2
     3     3    19    1
     4    19    20    1
     5    20    21   ar
     6    21    22   ar
     7    22    23   ar
     8    23    26    1
     9    26    27    1
    10    26    28    1
    11    26    29    1
    12    23    24   ar
    13    24    25   ar
    14     3     4    1
    15     4     5    2
    16     5     6    1
    17     6     7    1
    18     7     8    2
    19     7     9   am
    20     9    11    1
    21    11    12    1
    22    11    13    1
    23    13    14   ar
    24    14    15   ar
    25    15    16   ar
    26    16    17    1
    27    16    18   ar
    28     6     2    1
    29    18    13   ar
    30    25    20   ar
    31     9    10    1
@<TRIPOS>MOLECULE
*****
 29 31 0 0 0
SMALL
GASTEIGER

@<TRIPOS>ATOM
      1 C          63.6478   87.8959   12.8589 C.3     1  UNL1        0.0285
      2 C          62.7494   88.7703   12.0354 C.2     1  UNL1       -0.0154
      3 C          61.6127   88.3044   11.1747 C.2     1  UNL1       -0.0046
      4 C          60.9908   89.5104   10.5353 C.2     1  UNL1        0.0895
      5 N          61.7431   90.7217   11.0008 N.2     1  UNL1       -0.2578
      6 C          62.8301   90.2643   11.9279 C.3     1  UNL1        0.1970
      7 C          63.8232   91.1461   12.6252 C.2     1  UNL1        0.2489
      8 O          63.5079   91.7052   13.9808 O.2     1  UNL1       -0.2726
      9 N          65.1318   91.4688   11.9667 N.am    1  UNL1       -0.3003
     10 H          65.3387   91.1018   11.0769 H       1  UNL1        0.1497
     11 C          66.1250   92.3505   12.6638 C.3     1  UNL1        0.0972
     12 C          67.0273   91.7779   13.7163 C.3     1  UNL1        0.0263
     13 C          66.2158   93.8051   12.3084 C.ar    1  UNL1        0.0351
     14 C          66.3459   94.9430   13.2769 C.ar    1  UNL1        0.1190
     15 N          66.4029   96.2181   12.4890 N.ar    1  UNL1       -0.1679
     16 N          66.3081   95.8682   11.0335 N.ar    1  UNL1       -0.2476
     17 C          66.3258   96.8392    9.8904 C.3     1  UNL1        0.1537
     18 C          66.1924   94.3768   10.9218 C.ar    1  UNL1        0.0940
     19 C          61.1748   86.8822   10.9865 C.3     1  UNL1        0.0552
     20 C          61.3214   86.2233    9.6469 C.ar    1  UNL1        0.0014
     21 C          62.6199   85.5750    9.2680 C.ar    1  UNL1       -0.0009
     22 C          62.7664   84.9162    7.9285 C.ar    1  UNL1        0.0228
     23 C          61.6145   84.9057    6.9678 C.ar    1  UNL1        0.1526
     24 N          60.3160   85.5540    7.3466 N.ar    1  UNL1       -0.2402
     25 C          60.1695   86.2128    8.6862 C.ar    1  UNL1        0.0948
     26 C          61.7611   84.2468    5.6282 C.3     1  UNL1        0.4348
     27 F          61.9078   83.5880    4.2886 F       1  UNL1       -0.1644
     28 F          60.3391   83.7757    5.7042 F       1  UNL1       -0.1644
     29 F          63.1832   84.7178    5.5522 F       1  UNL1       -0.1644
@<TRIPOS>BOND
     1     1     2    1
     2     2     3    2
     3     3    19    1
     4    19    20    1
     5    20    21   ar
     6    21    22   ar
     7    22    23   ar
     8    23    26    1
     9    26    27    1
    10    26    28    1
    11    26    29    1
    12    23    24   ar
    13    24    25   ar
    14     3     4    1
    15     4     5    2
    16     5     6    1
    17     6     7    1
    18     7     8    2
    19     7     9   am
    20     9    11    1
    21    11    12    1
    22    11    13    1
    23    13    14   ar
    24    14    15   ar
    25    15    16   ar
    26    16    17    1
    27    16    18   ar
    28     6     2    1
    29    18    13   ar
    30    25    20   ar
    31     9    10    1
@<TRIPOS>MOLECULE
*****
 29 31 0 0 0
SMALL
GASTEIGER

@<TRIPOS>ATOM
      1 C          62.8624   88.8463   11.3882 C.3     1  UNL1        0.0285
      2 C          63.4504   88.4443   12.7083 C.2     1  UNL1       -0.0154
      3 C          64.0541   89.3695   13.7230 C.2     1  UNL1       -0.0046
      4 C          64.5147   88.5434   14.8872 C.2     1  UNL1        0.0895
      5 N          64.1958   87.1078   14.5921 N.2     1  UNL1       -0.2578
      6 C          63.5380   87.0465   13.2453 C.3     1  UNL1        0.1970
      7 C          63.0530   85.8054   12.5567 C.2     1  UNL1        0.2489
      8 O          61.6642   85.7549   11.9922 O.2     1  UNL1       -0.2726
      9 N          63.9568   84.6147   12.4324 N.am    1  UNL1       -0.3003
     10 H          64.8683   84.6478   12.8029 H       1  UNL1        0.1497
     11 C          63.4718   83.3735   11.7438 C.3     1  UNL1        0.0972
     12 C          63.5909   83.2472   10.2539 C.3     1  UNL1        0.0263
     13 C          62.8677   82.2585   12.5452 C.ar    1  UNL1        0.0351
     14 C          62.0514   82.4123   13.7941 C.ar    1  UNL1        0.1190
     15 N          61.6531   81.0430   14.2591 N.ar    1  UNL1       -0.1679
     16 N          62.2234   80.0429   13.2975 N.ar    1  UNL1       -0.2476
     17 C          62.0699   78.5531   13.3806 C.3     1  UNL1        0.1537
     18 C          62.9741   80.7942   12.2382 C.ar    1  UNL1        0.0940
     19 C          64.1757   90.8591   13.5958 C.3     1  UNL1        0.0552
     20 C          65.3539   91.5692   14.1939 C.ar    1  UNL1        0.0014
     21 C          65.3258   91.9869   15.6343 C.ar    1  UNL1       -0.0009
     22 C          66.5039   92.6970   16.2323 C.ar    1  UNL1        0.0228
     23 C          67.7101   92.9894   15.3900 C.ar    1  UNL1        0.1526
     24 N          67.7382   92.5717   13.9496 N.ar    1  UNL1       -0.2402
     25 C          66.5601   91.8616   13.3516 C.ar    1  UNL1        0.0948
     26 C          68.8883   93.6995   15.9881 C.3     1  UNL1        0.4348
     27 F          70.0665   94.4096   16.5862 F       1  UNL1       -0.1644
     28 F          68.3689   95.0046   15.4618 F       1  UNL1       -0.1644
     29 F          69.4077   92.3945   16.5144 F       1  UNL1       -0.1644
@<TRIPOS>BOND
     1     1     2    1
     2     2     3    2
     3     3    19    1
     4    19    20    1
     5    20    21   ar
     6    21    22   ar
     7    22    23   ar
     8    23    26    1
     9    26    27    1
    10    26    28    1
    11    26    29    1
    12    23    24   ar
    13    24    25   ar
    14     3     4    1
    15     4     5    2
    16     5     6    1
    17     6     7    1
    18     7     8    2
    19     7     9   am
    20     9    11    1
    21    11    12    1
    22    11    13    1
    23    13    14   ar
    24    14    15   ar
    25    15    16   ar
    26    16    17    1
    27    16    18   ar
    28     6     2    1
    29    18    13   ar
    30    25    20   ar
    31     9    10    1
