@<TRIPOS>MOLECULE
*****
 30 34 0 0 0
SMALL
GASTEIGER

@<TRIPOS>ATOM
      1 C          63.1257   88.9577   11.7927 C.ar    1  UNL1        0.1074
      2 C          62.3743   89.6907   10.7213 C.ar    1  UNL1        0.0588
      3 S          62.8343   91.1184   10.7265 S.2     1  UNL1       -0.0508
      4 C          63.8701   91.2677   11.8012 C.ar    1  UNL1        0.1646
      5 N          64.0501   89.9324   12.4601 N.ar    1  UNL1       -0.2224
      6 C          63.4564   85.5107   13.7315 C.ar    1  UNL1        0.2416
      7 N          63.6036   86.9634   13.3878 N.ar    1  UNL1       -0.2089
      8 C          62.9785   87.5051   12.1364 C.ar    1  UNL1        0.1026
      9 C          62.2062   86.5940   11.2288 C.ar    1  UNL1        0.0224
     10 C          62.0591   85.1414   11.5725 C.ar    1  UNL1        0.0239
     11 C          62.6841   84.5997   12.8239 C.ar    1  UNL1        0.1189
     12 N          62.5370   83.1471   13.1676 N.ar    1  UNL1       -0.2826
     13 C          62.1530   82.5926   14.5074 C.ar    1  UNL1        0.1826
     14 N          62.1266   81.0967   14.3997 N.ar    1  UNL1       -0.2280
     15 C          62.4943   80.7267   12.9933 C.ar    1  UNL1        0.0786
     16 C          62.5914   79.3340   12.4447 C.3     1  UNL1        0.0538
     17 C          62.7479   81.9939   12.2319 C.ar    1  UNL1        0.0963
     18 C          63.7291   85.5623   16.3147 C.3     1  UNL1        0.2543
     19 O          64.0815   84.9690   14.9829 O.3     1  UNL1       -0.4551
     20 N          64.5980   92.5308   12.1548 N.pl3   1  UNL1       -0.2786
     21 H          64.1472   93.4011   12.0622 H       1  UNL1        0.1555
     22 C          66.0126   92.4677   12.6495 C.ar    1  UNL1        0.1276
     23 C          66.4462   92.4848   14.0853 C.ar    1  UNL1        0.0244
     24 C          67.9436   92.4041   14.1185 C.ar    1  UNL1        0.0773
     25 N          68.4356   92.3370   12.7030 N.ar    1  UNL1       -0.1728
     26 N          67.2422   92.3763   11.7951 N.ar    1  UNL1       -0.2362
     27 C          67.2729   92.3320   10.2961 C.3     1  UNL1        0.1551
     28 C          68.3772   92.4213   15.5543 C.3     1  UNL1        0.0477
     29 C          67.1477   92.5126   16.4086 C.3     1  UNL1        0.0112
     30 C          65.9542   92.5519   15.5008 C.3     1  UNL1        0.0308
@<TRIPOS>BOND
     1    18    19    1
     2    19     6    1
     3     6     7   ar
     4     7     8   ar
     5     8     1    1
     6     1     2   ar
     7     2     3   ar
     8     3     4   ar
     9     4    20    1
    10    20    22    1
    11    22    23   ar
    12    23    24   ar
    13    24    25   ar
    14    25    26   ar
    15    26    27    1
    16    24    28    1
    17    28    29    1
    18    29    30    1
    19     4     5   ar
    20     8     9   ar
    21     9    10   ar
    22    10    11   ar
    23    11    12    1
    24    12    13   ar
    25    13    14   ar
    26    14    15   ar
    27    15    16    1
    28    15    17   ar
    29    11     6   ar
    30    17    12   ar
    31     5     1   ar
    32    26    22   ar
    33    30    23    1
    34    20    21    1
@<TRIPOS>MOLECULE
*****
 30 34 0 0 0
SMALL
GASTEIGER

@<TRIPOS>ATOM
      1 C          63.9586   88.7962   15.2308 C.ar    1  UNL1        0.1074
      2 C          63.2299   88.9724   16.5300 C.ar    1  UNL1        0.0588
      3 S          62.8944   87.6105   17.0617 S.2     1  UNL1       -0.0508
      4 C          63.4158   86.5926   16.0912 C.ar    1  UNL1        0.1646
      5 N          64.0734   87.3254   14.9597 N.ar    1  UNL1       -0.2224
      6 C          66.2824   91.6958   13.8375 C.ar    1  UNL1        0.2416
      7 N          65.7603   90.5946   14.7119 N.ar    1  UNL1       -0.2089
      8 C          64.4807   89.8974   14.3564 C.ar    1  UNL1        0.1026
      9 C          63.7232   90.3014   13.1263 C.ar    1  UNL1        0.0224
     10 C          64.2453   91.4026   12.2518 C.ar    1  UNL1        0.0239
     11 C          65.5249   92.0998   12.6074 C.ar    1  UNL1        0.1189
     12 N          66.0470   93.2010   11.7329 N.ar    1  UNL1       -0.2826
     13 C          66.1810   94.6445   12.1183 C.ar    1  UNL1        0.1826
     14 N          66.7436   95.3877   10.9431 N.ar    1  UNL1       -0.2280
     15 C          66.9574   94.4036    9.8314 C.ar    1  UNL1        0.0786
     16 C          67.5055   94.7160    8.4705 C.3     1  UNL1        0.0538
     17 C          66.5269   93.0522   10.3196 C.ar    1  UNL1        0.0963
     18 C          67.5868   93.3894   15.3140 C.3     1  UNL1        0.2543
     19 O          67.5621   92.3931   14.1930 O.3     1  UNL1       -0.4551
     20 N          63.2999   85.1033   16.2281 N.pl3   1  UNL1       -0.2786
     21 H          62.9576   84.7110   17.0637 H       1  UNL1        0.1555
     22 C          63.7053   84.2119   15.0920 C.ar    1  UNL1        0.1276
     23 C          62.8897   83.0933   14.5145 C.ar    1  UNL1        0.0244
     24 C          63.6779   82.4726   13.3994 C.ar    1  UNL1        0.0773
     25 N          64.9807   83.2076   13.2877 N.ar    1  UNL1       -0.1728
     26 N          64.9978   84.2825   14.3337 N.ar    1  UNL1       -0.2362
     27 C          66.1114   85.2570   14.5786 C.3     1  UNL1        0.1551
     28 C          62.8623   81.3540   12.8219 C.3     1  UNL1        0.0477
     29 C          61.5700   81.2834   13.5801 C.3     1  UNL1        0.0112
     30 C          61.5869   82.3583   14.6262 C.3     1  UNL1        0.0308
@<TRIPOS>BOND
     1    18    19    1
     2    19     6    1
     3     6     7   ar
     4     7     8   ar
     5     8     1    1
     6     1     2   ar
     7     2     3   ar
     8     3     4   ar
     9     4    20    1
    10    20    22    1
    11    22    23   ar
    12    23    24   ar
    13    24    25   ar
    14    25    26   ar
    15    26    27    1
    16    24    28    1
    17    28    29    1
    18    29    30    1
    19     4     5   ar
    20     8     9   ar
    21     9    10   ar
    22    10    11   ar
    23    11    12    1
    24    12    13   ar
    25    13    14   ar
    26    14    15   ar
    27    15    16    1
    28    15    17   ar
    29    11     6   ar
    30    17    12   ar
    31     5     1   ar
    32    26    22   ar
    33    30    23    1
    34    20    21    1
@<TRIPOS>MOLECULE
*****
 30 34 0 0 0
SMALL
GASTEIGER

@<TRIPOS>ATOM
      1 C          61.8710   89.7416   12.2119 C.ar    1  UNL1        0.1074
      2 C          60.4884   90.2287   12.5298 C.ar    1  UNL1        0.0588
      3 S          59.5091   89.3300   11.8346 S.2     1  UNL1       -0.0508
      4 C          60.2866   88.2874   11.0871 C.ar    1  UNL1        0.1646
      5 N          61.7462   88.5419   11.3203 N.ar    1  UNL1       -0.2224
      6 C          65.0719   92.0781   12.4253 C.ar    1  UNL1        0.2416
      7 N          63.7896   91.4718   11.9372 N.ar    1  UNL1       -0.2089
      8 C          63.1533   90.3479   12.7000 C.ar    1  UNL1        0.1026
      9 C          63.7992   89.8302   13.9510 C.ar    1  UNL1        0.0224
     10 C          65.0815   90.4365   14.4391 C.ar    1  UNL1        0.0239
     11 C          65.7178   91.5604   13.6763 C.ar    1  UNL1        0.1189
     12 N          67.0001   92.1666   14.1643 N.ar    1  UNL1       -0.2826
     13 C          68.3734   91.8629   13.6432 C.ar    1  UNL1        0.1826
     14 N          69.3562   92.6916   14.4161 N.ar    1  UNL1       -0.2280
     15 C          68.5903   93.5075   15.4148 C.ar    1  UNL1        0.0786
     16 C          69.1774   94.4776   16.3968 C.3     1  UNL1        0.0538
     17 C          67.1342   93.1831   15.2592 C.ar    1  UNL1        0.0963
     18 C          66.5718   92.9061   10.4723 C.3     1  UNL1        0.2543
     19 O          65.7082   93.2020   11.6625 O.3     1  UNL1       -0.4551
     20 N          59.7061   87.1841   10.2529 N.pl3   1  UNL1       -0.2786
     21 H          58.7472   86.9707   10.3172 H       1  UNL1        0.1555
     22 C          60.5868   86.4061    9.3206 C.ar    1  UNL1        0.1276
     23 C          61.7502   85.5467    9.7182 C.ar    1  UNL1        0.0244
     24 C          62.3411   84.9603    8.4704 C.ar    1  UNL1        0.0773
     25 N          61.5430   85.4573    7.3017 N.ar    1  UNL1       -0.1728
     26 N          60.4587   86.3508    7.8270 N.ar    1  UNL1       -0.2362
     27 C          59.4276   87.0639    7.0036 C.3     1  UNL1        0.1551
     28 C          63.5045   84.1009    8.8680 C.3     1  UNL1        0.0477
     29 C          63.6325   84.1562   10.3615 C.3     1  UNL1        0.0112
     30 C          62.5483   85.0497   10.8870 C.3     1  UNL1        0.0308
@<TRIPOS>BOND
     1    18    19    1
     2    19     6    1
     3     6     7   ar
     4     7     8   ar
     5     8     1    1
     6     1     2   ar
     7     2     3   ar
     8     3     4   ar
     9     4    20    1
    10    20    22    1
    11    22    23   ar
    12    23    24   ar
    13    24    25   ar
    14    25    26   ar
    15    26    27    1
    16    24    28    1
    17    28    29    1
    18    29    30    1
    19     4     5   ar
    20     8     9   ar
    21     9    10   ar
    22    10    11   ar
    23    11    12    1
    24    12    13   ar
    25    13    14   ar
    26    14    15   ar
    27    15    16    1
    28    15    17   ar
    29    11     6   ar
    30    17    12   ar
    31     5     1   ar
    32    26    22   ar
    33    30    23    1
    34    20    21    1
@<TRIPOS>MOLECULE
*****
 30 34 0 0 0
SMALL
GASTEIGER

@<TRIPOS>ATOM
      1 C          64.0740   88.8700   14.9095 C.ar    1  UNL1        0.1074
      2 C          63.2949   89.5709   15.9826 C.ar    1  UNL1        0.0588
      3 S          63.8091   90.9762   16.0859 S.2     1  UNL1       -0.0508
      4 C          64.9061   91.1438   15.0767 C.ar    1  UNL1        0.1646
      5 N          65.0698   89.8421   14.3497 N.ar    1  UNL1       -0.2224
      6 C          63.1534   85.7224   12.6745 C.ar    1  UNL1        0.2416
      7 N          63.3377   87.1456   13.1111 N.ar    1  UNL1       -0.2089
      8 C          63.8897   87.4468   14.4729 C.ar    1  UNL1        0.1026
      9 C          64.2574   86.3248   15.3982 C.ar    1  UNL1        0.0224
     10 C          64.0731   84.9017   14.9617 C.ar    1  UNL1        0.0239
     11 C          63.5211   84.6004   13.5998 C.ar    1  UNL1        0.1189
     12 N          63.3368   83.1772   13.1633 N.ar    1  UNL1       -0.2826
     13 C          63.9362   82.5449   11.9423 C.ar    1  UNL1        0.1826
     14 N          63.4906   81.1134   11.8954 N.ar    1  UNL1       -0.2280
     15 C          62.6158   80.8610   13.0875 C.ar    1  UNL1        0.0786
     16 C          61.9525   79.5613   13.4351 C.3     1  UNL1        0.0538
     17 C          62.5208   82.1365   13.8710 C.ar    1  UNL1        0.0963
     18 C          61.3678   86.1253   10.8309 C.3     1  UNL1        0.2543
     19 O          62.6015   85.4211   11.3127 O.3     1  UNL1       -0.4551
     20 N          65.7001   92.3936   14.8366 N.pl3   1  UNL1       -0.2786
     21 H          65.4173   93.2428   15.2467 H       1  UNL1        0.1555
     22 C          66.9248   92.3496   13.9717 C.ar    1  UNL1        0.1276
     23 C          66.9459   92.3609   12.4719 C.ar    1  UNL1        0.0244
     24 C          68.3777   92.3048   12.0280 C.ar    1  UNL1        0.0773
     25 N          69.2414   92.2590   13.2535 N.ar    1  UNL1       -0.1728
     26 N          68.3436   92.2866   14.4548 N.ar    1  UNL1       -0.2362
     27 C          68.7866   92.2566   15.8875 C.3     1  UNL1        0.1551
     28 C          68.3988   92.3161   10.5282 C.3     1  UNL1        0.0477
     29 C          66.9801   92.3791   10.0452 C.3     1  UNL1        0.0112
     30 C          66.0822   92.4067   11.2464 C.3     1  UNL1        0.0308
@<TRIPOS>BOND
     1    18    19    1
     2    19     6    1
     3     6     7   ar
     4     7     8   ar
     5     8     1    1
     6     1     2   ar
     7     2     3   ar
     8     3     4   ar
     9     4    20    1
    10    20    22    1
    11    22    23   ar
    12    23    24   ar
    13    24    25   ar
    14    25    26   ar
    15    26    27    1
    16    24    28    1
    17    28    29    1
    18    29    30    1
    19     4     5   ar
    20     8     9   ar
    21     9    10   ar
    22    10    11   ar
    23    11    12    1
    24    12    13   ar
    25    13    14   ar
    26    14    15   ar
    27    15    16    1
    28    15    17   ar
    29    11     6   ar
    30    17    12   ar
    31     5     1   ar
    32    26    22   ar
    33    30    23    1
    34    20    21    1
@<TRIPOS>MOLECULE
*****
 30 34 0 0 0
SMALL
GASTEIGER

@<TRIPOS>ATOM
      1 C          62.5452   89.0917   12.0396 C.ar    1  UNL1        0.1074
      2 C          61.1873   89.5705   11.6192 C.ar    1  UNL1        0.0588
      3 S          60.4950   88.4411   10.9155 S.2     1  UNL1       -0.0508
      4 C          61.4250   87.2644   10.9011 C.ar    1  UNL1        0.1646
      5 N          62.6921   87.6665   11.5957 N.ar    1  UNL1       -0.2224
      6 C          65.0913   92.0006   12.9374 C.ar    1  UNL1        0.2416
      7 N          64.0611   91.1955   12.2022 N.ar    1  UNL1       -0.2089
      8 C          63.5754   89.8969   12.7747 C.ar    1  UNL1        0.1026
      9 C          64.1199   89.4034   14.0825 C.ar    1  UNL1        0.0224
     10 C          65.1501   90.2086   14.8176 C.ar    1  UNL1        0.0239
     11 C          65.6358   91.5072   14.2451 C.ar    1  UNL1        0.1189
     12 N          66.6660   92.3123   14.9803 N.ar    1  UNL1       -0.2826
     13 C          66.4618   93.0260   16.2837 C.ar    1  UNL1        0.1826
     14 N          67.7508   93.6999   16.6500 N.ar    1  UNL1       -0.2280
     15 C          68.7517   93.4026   15.5730 C.ar    1  UNL1        0.0786
     16 C          70.1734   93.8793   15.5347 C.3     1  UNL1        0.0538
     17 C          68.0812   92.5451   14.5411 C.ar    1  UNL1        0.0963
     18 C          66.3776   93.3068   11.0965 C.3     1  UNL1        0.2543
     19 O          65.5770   93.2992   12.3648 O.3     1  UNL1       -0.4551
     20 N          61.1382   85.9212   10.2978 N.pl3   1  UNL1       -0.2786
     21 H          60.2466   85.7281    9.9276 H       1  UNL1        0.1555
     22 C          62.2099   84.8725   10.2585 C.ar    1  UNL1        0.1276
     23 C          62.7102   84.0788   11.4289 C.ar    1  UNL1        0.0244
     24 C          63.7790   83.1490   10.9357 C.ar    1  UNL1        0.0773
     25 N          63.9393   83.3681    9.4605 N.ar    1  UNL1       -0.1728
     26 N          62.9696   84.4333    9.0419 N.ar    1  UNL1       -0.2362
     27 C          62.7909   84.9657    7.6511 C.3     1  UNL1        0.1551
     28 C          64.2792   82.3553   12.1061 C.3     1  UNL1        0.0477
     29 C          63.5195   82.7945   13.3226 C.3     1  UNL1        0.0112
     30 C          62.5498   83.8597   12.9041 C.3     1  UNL1        0.0308
@<TRIPOS>BOND
     1    18    19    1
     2    19     6    1
     3     6     7   ar
     4     7     8   ar
     5     8     1    1
     6     1     2   ar
     7     2     3   ar
     8     3     4   ar
     9     4    20    1
    10    20    22    1
    11    22    23   ar
    12    23    24   ar
    13    24    25   ar
    14    25    26   ar
    15    26    27    1
    16    24    28    1
    17    28    29    1
    18    29    30    1
    19     4     5   ar
    20     8     9   ar
    21     9    10   ar
    22    10    11   ar
    23    11    12    1
    24    12    13   ar
    25    13    14   ar
    26    14    15   ar
    27    15    16    1
    28    15    17   ar
    29    11     6   ar
    30    17    12   ar
    31     5     1   ar
    32    26    22   ar
    33    30    23    1
    34    20    21    1
@<TRIPOS>MOLECULE
*****
 30 34 0 0 0
SMALL
GASTEIGER

@<TRIPOS>ATOM
      1 C          64.6072   90.0597   13.3834 C.ar    1  UNL1        0.1074
      2 C          65.4386   90.8321   14.3642 C.ar    1  UNL1        0.0588
      3 S          65.5975   92.2281   13.8390 S.2     1  UNL1       -0.0508
      4 C          64.8642   92.3185   12.5336 C.ar    1  UNL1        0.1646
      5 N          64.2522   90.9783   12.2521 N.ar    1  UNL1       -0.2224
      6 C          62.8841   86.5670   12.6207 C.ar    1  UNL1        0.2416
      7 N          63.2893   88.0055   12.4926 N.ar    1  UNL1       -0.2089
      8 C          64.2019   88.6212   13.5115 C.ar    1  UNL1        0.1026
      9 C          64.7092   87.7983   14.6586 C.ar    1  UNL1        0.0224
     10 C          64.3039   86.3598   14.7867 C.ar    1  UNL1        0.0239
     11 C          63.3913   85.7441   13.7677 C.ar    1  UNL1        0.1189
     12 N          62.9861   84.3056   13.8958 N.ar    1  UNL1       -0.2826
     13 C          62.2736   83.6910   15.0640 C.ar    1  UNL1        0.1826
     14 N          62.0693   82.2347   14.7684 N.ar    1  UNL1       -0.2280
     15 C          62.6555   81.9493   13.4175 C.ar    1  UNL1        0.0786
     16 C          62.6721   80.6177   12.7270 C.3     1  UNL1        0.0538
     17 C          63.2220   83.2291   12.8783 C.ar    1  UNL1        0.0963
     18 C          61.1832   86.8277   10.6742 C.3     1  UNL1        0.2543
     19 O          61.9715   85.9513   11.6018 O.3     1  UNL1       -0.4551
     20 N          64.7610   93.5354   11.6626 N.pl3   1  UNL1       -0.2786
     21 H          63.9047   94.0152   11.5867 H       1  UNL1        0.1555
     22 C          65.9625   94.0212   10.9074 C.ar    1  UNL1        0.1276
     23 C          66.9769   93.1594   10.2157 C.ar    1  UNL1        0.0244
     24 C          68.0020   94.0596    9.5921 C.ar    1  UNL1        0.0773
     25 N          67.6211   95.4778    9.8983 N.ar    1  UNL1       -0.1728
     26 N          66.3606   95.4541   10.7112 N.ar    1  UNL1       -0.2362
     27 C          65.6272   96.6526   11.2357 C.3     1  UNL1        0.1551
     28 C          69.0164   93.1978    8.9004 C.3     1  UNL1        0.0477
     29 C          68.6182   91.7650    9.0967 C.3     1  UNL1        0.0112
     30 C          67.3578   91.7412    9.9096 C.3     1  UNL1        0.0308
@<TRIPOS>BOND
     1    18    19    1
     2    19     6    1
     3     6     7   ar
     4     7     8   ar
     5     8     1    1
     6     1     2   ar
     7     2     3   ar
     8     3     4   ar
     9     4    20    1
    10    20    22    1
    11    22    23   ar
    12    23    24   ar
    13    24    25   ar
    14    25    26   ar
    15    26    27    1
    16    24    28    1
    17    28    29    1
    18    29    30    1
    19     4     5   ar
    20     8     9   ar
    21     9    10   ar
    22    10    11   ar
    23    11    12    1
    24    12    13   ar
    25    13    14   ar
    26    14    15   ar
    27    15    16    1
    28    15    17   ar
    29    11     6   ar
    30    17    12   ar
    31     5     1   ar
    32    26    22   ar
    33    30    23    1
    34    20    21    1
@<TRIPOS>MOLECULE
*****
 30 34 0 0 0
SMALL
GASTEIGER

@<TRIPOS>ATOM
      1 C          62.8368   88.1355   11.9960 C.ar    1  UNL1        0.1074
      2 C          62.2391   89.0699   10.9863 C.ar    1  UNL1        0.0588
      3 S          62.4940   90.4746   11.4467 S.2     1  UNL1       -0.0508
      4 C          63.2492   90.4083   12.7410 C.ar    1  UNL1        0.1646
      5 N          63.4611   88.9627   13.0804 N.ar    1  UNL1       -0.2224
      6 C          63.2047   84.3309   13.0634 C.ar    1  UNL1        0.2416
      7 N          63.2273   85.8294   13.1270 N.ar    1  UNL1       -0.2089
      8 C          62.8142   86.6371   11.9324 C.ar    1  UNL1        0.1026
      9 C          62.3785   85.9462   10.6742 C.ar    1  UNL1        0.0224
     10 C          62.3559   84.4478   10.6106 C.ar    1  UNL1        0.0239
     11 C          62.7690   83.6401   11.8052 C.ar    1  UNL1        0.1189
     12 N          62.7464   82.1416   11.7416 N.ar    1  UNL1       -0.2826
     13 C          62.4756   81.2145   12.8892 C.ar    1  UNL1        0.1826
     14 N          62.5524   79.8070   12.3761 N.ar    1  UNL1       -0.2280
     15 C          62.8708   79.8644   10.9114 C.ar    1  UNL1        0.0786
     16 C          63.0396   78.6858    9.9990 C.3     1  UNL1        0.0538
     17 C          62.9906   81.3072   10.5193 C.ar    1  UNL1        0.0963
     18 C          62.9044   83.6994   15.5655 C.3     1  UNL1        0.2543
     19 O          63.6178   83.5232   14.2580 O.3     1  UNL1       -0.4551
     20 N          63.7115   91.5816   13.5532 N.pl3   1  UNL1       -0.2786
     21 H          63.1393   91.9405   14.2695 H       1  UNL1        0.1555
     22 C          65.0455   92.2081   13.2741 C.ar    1  UNL1        0.1276
     23 C          65.5504   92.6456   11.9312 C.ar    1  UNL1        0.0244
     24 C          66.9258   93.2149   12.1160 C.ar    1  UNL1        0.0773
     25 N          67.2710   93.1293   13.5732 N.ar    1  UNL1       -0.1728
     26 N          66.1089   92.5070   14.2891 N.ar    1  UNL1       -0.2362
     27 C          66.0249   92.2320   15.7612 C.3     1  UNL1        0.1551
     28 C          67.4308   93.6525   10.7730 C.3     1  UNL1        0.0477
     29 C          66.3674   93.3535    9.7582 C.3     1  UNL1        0.0112
     30 C          65.2053   92.7313   10.4739 C.3     1  UNL1        0.0308
@<TRIPOS>BOND
     1    18    19    1
     2    19     6    1
     3     6     7   ar
     4     7     8   ar
     5     8     1    1
     6     1     2   ar
     7     2     3   ar
     8     3     4   ar
     9     4    20    1
    10    20    22    1
    11    22    23   ar
    12    23    24   ar
    13    24    25   ar
    14    25    26   ar
    15    26    27    1
    16    24    28    1
    17    28    29    1
    18    29    30    1
    19     4     5   ar
    20     8     9   ar
    21     9    10   ar
    22    10    11   ar
    23    11    12    1
    24    12    13   ar
    25    13    14   ar
    26    14    15   ar
    27    15    16    1
    28    15    17   ar
    29    11     6   ar
    30    17    12   ar
    31     5     1   ar
    32    26    22   ar
    33    30    23    1
    34    20    21    1
@<TRIPOS>MOLECULE
*****
 30 34 0 0 0
SMALL
GASTEIGER

@<TRIPOS>ATOM
      1 C          63.6574   87.5181   15.0583 C.ar    1  UNL1        0.1074
      2 C          63.1085   88.0063   16.3660 C.ar    1  UNL1        0.0588
      3 S          63.5096   89.4423   16.5299 S.2     1  UNL1       -0.0508
      4 C          64.3064   89.8416   15.3234 C.ar    1  UNL1        0.1646
      5 N          64.3977   88.6524   14.4139 N.ar    1  UNL1       -0.2224
      6 C          62.8964   84.5762   12.5056 C.ar    1  UNL1        0.2416
      7 N          63.0592   85.9564   13.0700 N.ar    1  UNL1       -0.2089
      8 C          63.4946   86.1379   14.4939 C.ar    1  UNL1        0.1026
      9 C          63.7671   84.9391   15.3535 C.ar    1  UNL1        0.0224
     10 C          63.6043   83.5589   14.7891 C.ar    1  UNL1        0.0239
     11 C          63.1689   83.3774   13.3652 C.ar    1  UNL1        0.1189
     12 N          63.0060   81.9972   12.8008 N.ar    1  UNL1       -0.2826
     13 C          62.6952   80.7558   13.5832 C.ar    1  UNL1        0.1826
     14 N          62.6225   79.6075   12.6209 N.ar    1  UNL1       -0.2280
     15 C          62.8884   80.1392   11.2438 C.ar    1  UNL1        0.0786
     16 C          62.9129   79.3352    9.9777 C.3     1  UNL1        0.0538
     17 C          63.1254   81.6161   11.3550 C.ar    1  UNL1        0.0963
     18 C          62.2763   85.5908   10.1957 C.3     1  UNL1        0.2543
     19 O          62.4610   84.3947   11.0817 O.3     1  UNL1       -0.4551
     20 N          64.9065   91.1930   15.0708 N.pl3   1  UNL1       -0.2786
     21 H          65.2654   91.7202   15.8208 H       1  UNL1        0.1555
     22 C          64.9597   91.7410   13.6755 C.ar    1  UNL1        0.1276
     23 C          64.1397   91.2698   12.5113 C.ar    1  UNL1        0.0244
     24 C          64.5155   92.0940   11.3157 C.ar    1  UNL1        0.0773
     25 N          65.5679   93.0747   11.7410 N.ar    1  UNL1       -0.1728
     26 N          65.8425   92.8565   13.1995 N.ar    1  UNL1       -0.2362
     27 C          66.8268   93.6198   14.0351 C.3     1  UNL1        0.1551
     28 C          63.6954   91.6228   10.1515 C.3     1  UNL1        0.0477
     29 C          62.8128   90.5074   10.6276 C.3     1  UNL1        0.0112
     30 C          63.0873   90.2892   12.0860 C.3     1  UNL1        0.0308
@<TRIPOS>BOND
     1    18    19    1
     2    19     6    1
     3     6     7   ar
     4     7     8   ar
     5     8     1    1
     6     1     2   ar
     7     2     3   ar
     8     3     4   ar
     9     4    20    1
    10    20    22    1
    11    22    23   ar
    12    23    24   ar
    13    24    25   ar
    14    25    26   ar
    15    26    27    1
    16    24    28    1
    17    28    29    1
    18    29    30    1
    19     4     5   ar
    20     8     9   ar
    21     9    10   ar
    22    10    11   ar
    23    11    12    1
    24    12    13   ar
    25    13    14   ar
    26    14    15   ar
    27    15    16    1
    28    15    17   ar
    29    11     6   ar
    30    17    12   ar
    31     5     1   ar
    32    26    22   ar
    33    30    23    1
    34    20    21    1
@<TRIPOS>MOLECULE
*****
 30 34 0 0 0
SMALL
GASTEIGER

@<TRIPOS>ATOM
      1 C          63.6193   87.7792   14.5178 C.ar    1  UNL1        0.1074
      2 C          63.5224   88.2106   15.9511 C.ar    1  UNL1        0.0588
      3 S          63.7335   89.6948   16.0037 S.2     1  UNL1       -0.0508
      4 C          63.9608   90.1805   14.6029 C.ar    1  UNL1        0.1646
      5 N          63.8903   88.9967   13.6846 N.ar    1  UNL1       -0.2224
      6 C          62.7414   84.7284   12.1363 C.ar    1  UNL1        0.2416
      7 N          62.8894   86.1311   12.6467 N.ar    1  UNL1       -0.2089
      8 C          63.4712   86.3765   14.0074 C.ar    1  UNL1        0.1026
      9 C          63.9049   85.2192   14.8576 C.ar    1  UNL1        0.0224
     10 C          63.7568   83.8166   14.3471 C.ar    1  UNL1        0.0239
     11 C          63.1750   83.5711   12.9865 C.ar    1  UNL1        0.1189
     12 N          63.0270   82.1685   12.4760 N.ar    1  UNL1       -0.2826
     13 C          62.6973   80.9601   13.3013 C.ar    1  UNL1        0.1826
     14 N          62.6492   79.7727   12.3860 N.ar    1  UNL1       -0.2280
     15 C          62.9490   80.2473   10.9950 C.ar    1  UNL1        0.0786
     16 C          63.0055   79.3914    9.7644 C.3     1  UNL1        0.0538
     17 C          63.1825   81.7279   11.0507 C.ar    1  UNL1        0.0963
     18 C          61.7341   85.6405    9.9220 C.3     1  UNL1        0.2543
     19 O          62.1596   84.4829   10.7756 O.3     1  UNL1       -0.4551
     20 N          64.2143   91.6009   14.1925 N.pl3   1  UNL1       -0.2786
     21 H          63.4740   92.2498   14.1817 H       1  UNL1        0.1555
     22 C          65.5958   92.0325   13.7984 C.ar    1  UNL1        0.1276
     23 C          66.7541   92.2389   14.7288 C.ar    1  UNL1        0.0244
     24 C          67.9357   92.6675   13.9101 C.ar    1  UNL1        0.0773
     25 N          67.5076   92.7261   12.4737 N.ar    1  UNL1       -0.1728
     26 N          66.0614   92.3337   12.4046 N.ar    1  UNL1       -0.2362
     27 C          65.2275   92.2560   11.1603 C.3     1  UNL1        0.1551
     28 C          69.0940   92.8738   14.8406 C.3     1  UNL1        0.0477
     29 C          68.6283   92.5727   16.2343 C.3     1  UNL1        0.0112
     30 C          67.1822   92.1803   16.1652 C.3     1  UNL1        0.0308
@<TRIPOS>BOND
     1    18    19    1
     2    19     6    1
     3     6     7   ar
     4     7     8   ar
     5     8     1    1
     6     1     2   ar
     7     2     3   ar
     8     3     4   ar
     9     4    20    1
    10    20    22    1
    11    22    23   ar
    12    23    24   ar
    13    24    25   ar
    14    25    26   ar
    15    26    27    1
    16    24    28    1
    17    28    29    1
    18    29    30    1
    19     4     5   ar
    20     8     9   ar
    21     9    10   ar
    22    10    11   ar
    23    11    12    1
    24    12    13   ar
    25    13    14   ar
    26    14    15   ar
    27    15    16    1
    28    15    17   ar
    29    11     6   ar
    30    17    12   ar
    31     5     1   ar
    32    26    22   ar
    33    30    23    1
    34    20    21    1
