@<TRIPOS>MOLECULE
*****
 32 35 0 0 0
SMALL
GASTEIGER

@<TRIPOS>ATOM
      1 N          62.2136   86.8167   11.5603 N.am    1  UNL1       -0.2683
      2 C          63.0056   87.8088   12.3595 C.2     1  UNL1        0.3047
      3 O          64.2571   87.3759   13.0641 O.2     1  UNL1       -0.2525
      4 N          62.5462   89.2335   12.4540 N.am    1  UNL1       -0.2863
      5 H          61.3922   87.1008   11.0978 H       1  UNL1        0.1564
      6 H          61.7249   89.5176   11.9915 H       1  UNL1        0.1512
      7 C          62.3860   84.9566   16.6357 C.3     1  UNL1        0.0521
      8 C          62.6875   84.3531   15.2960 C.ar    1  UNL1        0.0594
      9 C          62.5295   85.1743   14.0508 C.ar    1  UNL1        0.0160
     10 C          62.8310   84.5707   12.7111 C.ar    1  UNL1        0.0162
     11 C          62.6730   85.3920   11.4658 C.ar    1  UNL1        0.0516
     12 C          62.9744   84.7884   10.1261 C.ar    1  UNL1        0.0147
     13 C          63.4339   83.3636   10.0316 C.ar    1  UNL1        0.0013
     14 C          63.5918   82.5424   11.2768 C.ar    1  UNL1        0.0016
     15 C          63.2904   83.1460   12.6166 C.ar    1  UNL1        0.0204
     16 C          63.4483   82.3248   13.8618 C.ar    1  UNL1        0.0984
     17 N          63.1469   82.9283   15.2015 N.ar    1  UNL1       -0.2481
     18 C          63.3383   90.2255   13.2531 C.3     1  UNL1        0.1021
     19 C          63.3010   90.1818   14.7520 C.3     1  UNL1        0.0700
     20 C          64.0931   91.1738   15.5512 C.3     1  UNL1        0.2000
     21 O          64.9224   92.2094   14.8514 O.3     1  UNL1       -0.4771
     22 C          64.9597   92.2531   13.3525 C.ar    1  UNL1        0.1368
     23 C          65.7890   93.2887   12.6528 C.ar    1  UNL1        0.0480
     24 C          65.8263   93.3323   11.1539 C.ar    1  UNL1        0.0607
     25 CL         66.6557   94.3680   10.4541 Cl      1  UNL1       -0.0821
     26 C          65.0343   92.3404   10.3547 C.ar    1  UNL1        0.0113
     27 C          64.2049   91.3048   11.0545 C.ar    1  UNL1        0.0012
     28 C          64.1677   91.2611   12.5534 C.ar    1  UNL1        0.0297
     29 C          64.6662   91.8927   16.7363 C.3     1  UNL1        0.2357
     30 F          65.9500   92.6567   16.6014 F       1  UNL1       -0.2303
     31 C          63.4628   90.3879   16.6626 C.3     1  UNL1        0.2357
     32 F          63.4246   88.8899   16.5938 F       1  UNL1       -0.2303
@<TRIPOS>BOND
     1     7     8    1
     2     8     9   ar
     3     9    10   ar
     4    10    11   ar
     5    11     1    1
     6     1     2   am
     7     2     3    2
     8     2     4   am
     9    18     4    1
    10    18    19    1
    11    19    20    1
    12    20    29    1
    13    29    30    1
    14    20    31    1
    15    31    32    1
    16    20    21    1
    17    21    22    1
    18    22    23   ar
    19    23    24   ar
    20    24    25    1
    21    24    26   ar
    22    26    27   ar
    23    27    28   ar
    24    11    12   ar
    25    12    13   ar
    26    13    14   ar
    27    14    15   ar
    28    15    16   ar
    29    16    17   ar
    30    17     8   ar
    31    15    10   ar
    32    28    18    1
    33    28    22   ar
    34     1     5    1
    35     4     6    1
@<TRIPOS>MOLECULE
*****
 32 35 0 0 0
SMALL
GASTEIGER

@<TRIPOS>ATOM
      1 N          62.5125   85.9646    8.9757 N.am    1  UNL1       -0.2683
      2 C          62.4052   85.1286   10.2166 C.2     1  UNL1        0.3047
      3 O          61.2706   85.3479   11.1729 O.2     1  UNL1       -0.2525
      4 N          63.4325   84.0733   10.5011 N.am    1  UNL1       -0.2863
      5 H          63.2572   85.8206    8.3481 H       1  UNL1        0.1564
      6 H          64.1772   83.9293    9.8735 H       1  UNL1        0.1512
      7 C          63.3295   89.8749   12.6215 C.3     1  UNL1        0.0521
      8 C          62.3548   89.6888   11.4967 C.ar    1  UNL1        0.0594
      9 C          62.4073   88.4474   10.6564 C.ar    1  UNL1        0.0160
     10 C          61.4326   88.2613    9.5315 C.ar    1  UNL1        0.0162
     11 C          61.4852   87.0198    8.6912 C.ar    1  UNL1        0.0516
     12 C          60.5104   86.8337    7.5664 C.ar    1  UNL1        0.0147
     13 C          59.4831   87.8891    7.2819 C.ar    1  UNL1        0.0013
     14 C          59.4305   89.1304    8.1222 C.ar    1  UNL1        0.0016
     15 C          60.4053   89.3166    9.2470 C.ar    1  UNL1        0.0204
     16 C          60.3527   90.5579   10.0873 C.ar    1  UNL1        0.0984
     17 N          61.3275   90.7441   11.2121 N.ar    1  UNL1       -0.2481
     18 C          63.3252   83.2374   11.7419 C.3     1  UNL1        0.1021
     19 C          63.0780   81.7619   11.6332 C.3     1  UNL1        0.0700
     20 C          62.9707   80.9260   12.8741 C.3     1  UNL1        0.2000
     21 O          63.1105   81.5655   14.2237 O.3     1  UNL1       -0.4771
     22 C          63.3577   83.0410   14.3324 C.ar    1  UNL1        0.1368
     23 C          63.4975   83.6806   15.6820 C.ar    1  UNL1        0.0480
     24 C          63.7447   85.1561   15.7907 C.ar    1  UNL1        0.0607
     25 CL         63.8846   85.7957   17.1403 Cl      1  UNL1       -0.0821
     26 C          63.8520   85.9920   14.5499 C.ar    1  UNL1        0.0113
     27 C          63.7122   85.3524   13.2003 C.ar    1  UNL1        0.0012
     28 C          63.4650   83.8769   13.0916 C.ar    1  UNL1        0.0297
     29 C          62.7934   79.7228   13.7521 C.3     1  UNL1        0.2357
     30 F          61.4841   78.9910   13.7663 F       1  UNL1       -0.2303
     31 C          62.7693   79.8685   11.8295 C.3     1  UNL1        0.2357
     32 F          62.8552   80.2251   10.3750 F       1  UNL1       -0.2303
@<TRIPOS>BOND
     1     7     8    1
     2     8     9   ar
     3     9    10   ar
     4    10    11   ar
     5    11     1    1
     6     1     2   am
     7     2     3    2
     8     2     4   am
     9    18     4    1
    10    18    19    1
    11    19    20    1
    12    20    29    1
    13    29    30    1
    14    20    31    1
    15    31    32    1
    16    20    21    1
    17    21    22    1
    18    22    23   ar
    19    23    24   ar
    20    24    25    1
    21    24    26   ar
    22    26    27   ar
    23    27    28   ar
    24    11    12   ar
    25    12    13   ar
    26    13    14   ar
    27    14    15   ar
    28    15    16   ar
    29    16    17   ar
    30    17     8   ar
    31    15    10   ar
    32    28    18    1
    33    28    22   ar
    34     1     5    1
    35     4     6    1
@<TRIPOS>MOLECULE
*****
 32 35 0 0 0
SMALL
GASTEIGER

@<TRIPOS>ATOM
      1 N          62.9264   90.0628   13.5709 N.am    1  UNL1       -0.2683
      2 C          63.3160   88.6546   13.2311 C.2     1  UNL1        0.3047
      3 O          64.5696   88.0640   13.8052 O.2     1  UNL1       -0.2525
      4 N          62.4520   87.8372   12.3172 N.am    1  UNL1       -0.2863
      5 H          62.1036   90.4504   13.1941 H       1  UNL1        0.1564
      6 H          61.6292   88.2248   11.9404 H       1  UNL1        0.1512
      7 C          66.3767   92.7374   10.3784 C.3     1  UNL1        0.0521
      8 C          66.1621   92.6819   11.8620 C.ar    1  UNL1        0.0594
      9 C          65.0836   91.8089   12.4316 C.ar    1  UNL1        0.0160
     10 C          64.8690   91.7533   13.9151 C.ar    1  UNL1        0.0162
     11 C          63.7904   90.8802   14.4848 C.ar    1  UNL1        0.0516
     12 C          63.5758   90.8247   15.9683 C.ar    1  UNL1        0.0147
     13 C          64.4399   91.6422   16.8822 C.ar    1  UNL1        0.0013
     14 C          65.5184   92.5152   16.3126 C.ar    1  UNL1        0.0016
     15 C          65.7330   92.5708   14.8290 C.ar    1  UNL1        0.0204
     16 C          66.8115   93.4438   14.2594 C.ar    1  UNL1        0.0984
     17 N          67.0261   93.4993   12.7759 N.ar    1  UNL1       -0.2481
     18 C          62.8417   86.4291   11.9774 C.3     1  UNL1        0.1021
     19 C          63.3650   85.5169   13.0470 C.3     1  UNL1        0.0700
     20 C          63.7546   84.1087   12.7071 C.3     1  UNL1        0.2000
     21 O          63.6209   83.6129   11.2978 O.3     1  UNL1       -0.4771
     22 C          63.0976   84.5251   10.2283 C.ar    1  UNL1        0.1368
     23 C          62.9639   84.0293    8.8189 C.ar    1  UNL1        0.0480
     24 C          62.4406   84.9416    7.7494 C.ar    1  UNL1        0.0607
     25 CL         62.3069   84.4457    6.3400 Cl      1  UNL1       -0.0821
     26 C          62.0510   86.3496    8.0892 C.ar    1  UNL1        0.0113
     27 C          62.1847   86.8455    9.4985 C.ar    1  UNL1        0.0012
     28 C          62.7080   85.9332   10.5680 C.ar    1  UNL1        0.0297
     29 C          64.2505   82.7034   12.8774 C.3     1  UNL1        0.2357
     30 F          63.6846   81.6008   12.0325 F       1  UNL1       -0.2303
     31 C          64.0605   84.1165   14.1756 C.3     1  UNL1        0.2357
     32 F          65.0153   85.1278   14.7375 F       1  UNL1       -0.2303
@<TRIPOS>BOND
     1     7     8    1
     2     8     9   ar
     3     9    10   ar
     4    10    11   ar
     5    11     1    1
     6     1     2   am
     7     2     3    2
     8     2     4   am
     9    18     4    1
    10    18    19    1
    11    19    20    1
    12    20    29    1
    13    29    30    1
    14    20    31    1
    15    31    32    1
    16    20    21    1
    17    21    22    1
    18    22    23   ar
    19    23    24   ar
    20    24    25    1
    21    24    26   ar
    22    26    27   ar
    23    27    28   ar
    24    11    12   ar
    25    12    13   ar
    26    13    14   ar
    27    14    15   ar
    28    15    16   ar
    29    16    17   ar
    30    17     8   ar
    31    15    10   ar
    32    28    18    1
    33    28    22   ar
    34     1     5    1
    35     4     6    1
@<TRIPOS>MOLECULE
*****
 32 35 0 0 0
SMALL
GASTEIGER

@<TRIPOS>ATOM
      1 N          61.5269   90.0578   11.3630 N.am    1  UNL1       -0.2683
      2 C          62.8800   90.6914   11.2296 C.2     1  UNL1        0.3047
      3 O          63.7887   90.2899   10.1058 O.2     1  UNL1       -0.2525
      4 N          63.3243   91.7265   12.2201 N.am    1  UNL1       -0.2863
      5 H          60.9304   90.3213   12.1006 H       1  UNL1        0.1564
      6 H          62.7279   91.9901   12.9577 H       1  UNL1        0.1512
      7 C          63.5955   85.3617   13.0711 C.3     1  UNL1        0.0521
      8 C          62.7451   85.7594   11.9012 C.ar    1  UNL1        0.0594
      9 C          62.3390   87.1922   11.7218 C.ar    1  UNL1        0.0160
     10 C          61.4886   87.5899   10.5519 C.ar    1  UNL1        0.0162
     11 C          61.0825   89.0227   10.3725 C.ar    1  UNL1        0.0516
     12 C          60.2321   89.4204    9.2026 C.ar    1  UNL1        0.0147
     13 C          59.7878   88.3852    8.2121 C.ar    1  UNL1        0.0013
     14 C          60.1939   86.9524    8.3915 C.ar    1  UNL1        0.0016
     15 C          61.0443   86.5548    9.5614 C.ar    1  UNL1        0.0204
     16 C          61.4503   85.1220    9.7408 C.ar    1  UNL1        0.0984
     17 N          62.3007   84.7243   10.9107 N.ar    1  UNL1       -0.2481
     18 C          64.6773   92.3601   12.0867 C.3     1  UNL1        0.1021
     19 C          65.0446   93.0863   10.8266 C.3     1  UNL1        0.0700
     20 C          66.3977   93.7199   10.6933 C.3     1  UNL1        0.2000
     21 O          67.3835   93.6273   11.8200 O.3     1  UNL1       -0.4771
     22 C          67.0163   92.9012   13.0801 C.ar    1  UNL1        0.1368
     23 C          68.0021   92.8086   14.2069 C.ar    1  UNL1        0.0480
     24 C          67.6348   92.0825   15.4670 C.ar    1  UNL1        0.0607
     25 CL         68.6207   91.9899   16.5937 Cl      1  UNL1       -0.0821
     26 C          66.2818   91.4489   15.6003 C.ar    1  UNL1        0.0113
     27 C          65.2960   91.5414   14.4736 C.ar    1  UNL1        0.0012
     28 C          65.6632   92.2676   13.2135 C.ar    1  UNL1        0.0297
     29 C          67.5469   94.4769   10.0966 C.3     1  UNL1        0.2357
     30 F          68.7175   93.7344    9.5237 F       1  UNL1       -0.2303
     31 C          65.8110   94.0753    9.3593 C.3     1  UNL1        0.2357
     32 F          66.4903   95.0894    8.4874 F       1  UNL1       -0.2303
@<TRIPOS>BOND
     1     7     8    1
     2     8     9   ar
     3     9    10   ar
     4    10    11   ar
     5    11     1    1
     6     1     2   am
     7     2     3    2
     8     2     4   am
     9    18     4    1
    10    18    19    1
    11    19    20    1
    12    20    29    1
    13    29    30    1
    14    20    31    1
    15    31    32    1
    16    20    21    1
    17    21    22    1
    18    22    23   ar
    19    23    24   ar
    20    24    25    1
    21    24    26   ar
    22    26    27   ar
    23    27    28   ar
    24    11    12   ar
    25    12    13   ar
    26    13    14   ar
    27    14    15   ar
    28    15    16   ar
    29    16    17   ar
    30    17     8   ar
    31    15    10   ar
    32    28    18    1
    33    28    22   ar
    34     1     5    1
    35     4     6    1
@<TRIPOS>MOLECULE
*****
 32 35 0 0 0
SMALL
GASTEIGER

@<TRIPOS>ATOM
      1 N          61.4109   88.9408   11.6831 N.am    1  UNL1       -0.2683
      2 C          62.6707   89.5567   12.2159 C.2     1  UNL1        0.3047
      3 O          63.9753   88.8281   12.0849 O.2     1  UNL1       -0.2525
      4 N          62.6257   90.9011   12.8796 N.am    1  UNL1       -0.2863
      5 H          60.5546   89.4190   11.7690 H       1  UNL1        0.1564
      6 H          61.7695   91.3793   12.9655 H       1  UNL1        0.1512
      7 C          58.9806   89.5522    6.8904 C.3     1  UNL1        0.0521
      8 C          59.6219   88.3911    7.5908 C.ar    1  UNL1        0.0594
      9 C          60.2182   88.5743    8.9548 C.ar    1  UNL1        0.0160
     10 C          60.8595   87.4131    9.6552 C.ar    1  UNL1        0.0162
     11 C          61.4558   87.5964   11.0194 C.ar    1  UNL1        0.0516
     12 C          62.0971   86.4353   11.7197 C.ar    1  UNL1        0.0147
     13 C          62.1420   85.0908   11.0559 C.ar    1  UNL1        0.0013
     14 C          61.5456   84.9076    9.6919 C.ar    1  UNL1        0.0016
     15 C          60.9044   86.0688    8.9915 C.ar    1  UNL1        0.0204
     16 C          60.3080   85.8855    7.6274 C.ar    1  UNL1        0.0984
     17 N          59.6668   87.0467    6.9270 N.ar    1  UNL1       -0.2481
     18 C          63.8854   91.5169   13.4123 C.3     1  UNL1        0.1021
     19 C          64.1511   91.5232   14.8886 C.3     1  UNL1        0.0700
     20 C          65.4109   92.1391   15.4213 C.3     1  UNL1        0.2000
     21 O          66.4049   92.7486   14.4778 O.3     1  UNL1       -0.4771
     22 C          66.1393   92.7423   13.0015 C.ar    1  UNL1        0.1368
     23 C          67.1334   93.3518   12.0580 C.ar    1  UNL1        0.0480
     24 C          66.8677   93.3455   10.5817 C.ar    1  UNL1        0.0607
     25 CL         67.8619   93.9550    9.6382 Cl      1  UNL1       -0.0821
     26 C          65.6080   92.7297   10.0490 C.ar    1  UNL1        0.0113
     27 C          64.6139   92.1202   10.9925 C.ar    1  UNL1        0.0012
     28 C          64.8796   92.1265   12.4688 C.ar    1  UNL1        0.0297
     29 C          66.4507   92.5986   16.3998 C.3     1  UNL1        0.2357
     30 F          67.7050   93.2574   15.9073 F       1  UNL1       -0.2303
     31 C          64.7779   91.6891   16.7047 C.3     1  UNL1        0.2357
     32 F          63.4470   90.9977   16.6825 F       1  UNL1       -0.2303
@<TRIPOS>BOND
     1     7     8    1
     2     8     9   ar
     3     9    10   ar
     4    10    11   ar
     5    11     1    1
     6     1     2   am
     7     2     3    2
     8     2     4   am
     9    18     4    1
    10    18    19    1
    11    19    20    1
    12    20    29    1
    13    29    30    1
    14    20    31    1
    15    31    32    1
    16    20    21    1
    17    21    22    1
    18    22    23   ar
    19    23    24   ar
    20    24    25    1
    21    24    26   ar
    22    26    27   ar
    23    27    28   ar
    24    11    12   ar
    25    12    13   ar
    26    13    14   ar
    27    14    15   ar
    28    15    16   ar
    29    16    17   ar
    30    17     8   ar
    31    15    10   ar
    32    28    18    1
    33    28    22   ar
    34     1     5    1
    35     4     6    1
@<TRIPOS>MOLECULE
*****
 32 35 0 0 0
SMALL
GASTEIGER

@<TRIPOS>ATOM
      1 N          62.6139   87.0193   12.4439 N.am    1  UNL1       -0.2683
      2 C          63.4164   88.1061   13.0959 C.2     1  UNL1        0.3047
      3 O          64.5742   87.7545   13.9824 O.2     1  UNL1       -0.2525
      4 N          63.0610   89.5444   12.8615 N.am    1  UNL1       -0.2863
      5 H          61.8540   87.2501   11.8621 H       1  UNL1        0.1564
      6 H          62.3011   89.7751   12.2796 H       1  UNL1        0.1512
      7 C          63.0168   84.7566    7.5482 C.3     1  UNL1        0.0521
      8 C          63.1827   84.2435    8.9480 C.ar    1  UNL1        0.0594
      9 C          62.9931   85.1688   10.1133 C.ar    1  UNL1        0.0160
     10 C          63.1589   84.6557   11.5130 C.ar    1  UNL1        0.0162
     11 C          62.9693   85.5810   12.6783 C.ar    1  UNL1        0.0516
     12 C          63.1352   85.0680   14.0781 C.ar    1  UNL1        0.0147
     13 C          63.4906   83.6296   14.3125 C.ar    1  UNL1        0.0013
     14 C          63.6802   82.7044   13.1472 C.ar    1  UNL1        0.0016
     15 C          63.5143   83.2174   11.7475 C.ar    1  UNL1        0.0204
     16 C          63.7039   82.2922   10.5822 C.ar    1  UNL1        0.0984
     17 N          63.5381   82.8053    9.1824 N.ar    1  UNL1       -0.2481
     18 C          63.8634   90.6311   13.5135 C.3     1  UNL1        0.1021
     19 C          63.9132   90.7321   15.0093 C.3     1  UNL1        0.0700
     20 C          64.7156   91.8188   15.6613 C.3     1  UNL1        0.2000
     21 O          65.4683   92.8045   14.8176 O.3     1  UNL1       -0.4771
     22 C          65.4185   92.7035   13.3218 C.ar    1  UNL1        0.1368
     23 C          66.1711   93.6892   12.4781 C.ar    1  UNL1        0.0480
     24 C          66.1213   93.5882   10.9823 C.ar    1  UNL1        0.0607
     25 CL         66.8740   94.5739   10.1386 Cl      1  UNL1       -0.0821
     26 C          65.3189   92.5015   10.3303 C.ar    1  UNL1        0.0113
     27 C          64.5663   91.5158   11.1740 C.ar    1  UNL1        0.0012
     28 C          64.6161   91.6168   12.6698 C.ar    1  UNL1        0.0297
     29 C          65.3309   92.6652   16.7360 C.3     1  UNL1        0.2357
     30 F          66.7700   93.0758   16.6357 F       1  UNL1       -0.2303
     31 C          64.1767   91.1271   16.8783 C.3     1  UNL1        0.2357
     32 F          63.1949   90.0029   16.7289 F       1  UNL1       -0.2303
@<TRIPOS>BOND
     1     7     8    1
     2     8     9   ar
     3     9    10   ar
     4    10    11   ar
     5    11     1    1
     6     1     2   am
     7     2     3    2
     8     2     4   am
     9    18     4    1
    10    18    19    1
    11    19    20    1
    12    20    29    1
    13    29    30    1
    14    20    31    1
    15    31    32    1
    16    20    21    1
    17    21    22    1
    18    22    23   ar
    19    23    24   ar
    20    24    25    1
    21    24    26   ar
    22    26    27   ar
    23    27    28   ar
    24    11    12   ar
    25    12    13   ar
    26    13    14   ar
    27    14    15   ar
    28    15    16   ar
    29    16    17   ar
    30    17     8   ar
    31    15    10   ar
    32    28    18    1
    33    28    22   ar
    34     1     5    1
    35     4     6    1
@<TRIPOS>MOLECULE
*****
 32 35 0 0 0
SMALL
GASTEIGER

@<TRIPOS>ATOM
      1 N          63.1808   91.1685   13.8260 N.am    1  UNL1       -0.2683
      2 C          63.1832   89.7809   13.2562 C.2     1  UNL1        0.3047
      3 O          64.3041   88.8386   13.5812 O.2     1  UNL1       -0.2525
      4 N          62.0647   89.3358   12.3613 N.am    1  UNL1       -0.2863
      5 H          62.4452   91.7870   13.6127 H       1  UNL1        0.1564
      6 H          61.3291   89.9542   12.1480 H       1  UNL1        0.1512
      7 C          67.3880   92.1762   10.5804 C.3     1  UNL1        0.0521
      8 C          67.1751   92.2582   12.0629 C.ar    1  UNL1        0.0594
      9 C          65.8437   91.8950   12.6506 C.ar    1  UNL1        0.0160
     10 C          65.6308   91.9770   14.1332 C.ar    1  UNL1        0.0162
     11 C          64.2993   91.6137   14.7209 C.ar    1  UNL1        0.0516
     12 C          64.0864   91.6957   16.2034 C.ar    1  UNL1        0.0147
     13 C          65.2049   92.1409   17.0983 C.ar    1  UNL1        0.0013
     14 C          66.5363   92.5041   16.5106 C.ar    1  UNL1        0.0016
     15 C          66.7492   92.4222   15.0280 C.ar    1  UNL1        0.0204
     16 C          68.0806   92.7854   14.4403 C.ar    1  UNL1        0.0984
     17 N          68.2935   92.7034   12.9578 N.ar    1  UNL1       -0.2481
     18 C          62.0672   87.9482   11.7915 C.3     1  UNL1        0.1021
     19 C          62.7860   86.8442   12.5087 C.3     1  UNL1        0.0700
     20 C          62.7884   85.4566   11.9388 C.3     1  UNL1        0.2000
     21 O          62.0720   85.1731   10.6518 O.3     1  UNL1       -0.4771
     22 C          61.3531   86.2772    9.9347 C.ar    1  UNL1        0.1368
     23 C          60.6367   85.9937    8.6477 C.ar    1  UNL1        0.0480
     24 C          59.9179   87.0978    7.9305 C.ar    1  UNL1        0.0607
     25 CL         59.2015   86.8142    6.6434 Cl      1  UNL1       -0.0821
     26 C          59.9155   88.4853    8.5003 C.ar    1  UNL1        0.0113
     27 C          60.6319   88.7688    9.7873 C.ar    1  UNL1        0.0012
     28 C          61.3507   87.6647   10.5045 C.ar    1  UNL1        0.0297
     29 C          63.0741   83.9907   11.7992 C.3     1  UNL1        0.2357
     30 F          63.6052   83.4500   10.5048 F       1  UNL1       -0.2303
     31 C          63.6040   85.2309   13.1773 C.3     1  UNL1        0.2357
     32 F          64.6672   84.1729   13.1927 F       1  UNL1       -0.2303
@<TRIPOS>BOND
     1     7     8    1
     2     8     9   ar
     3     9    10   ar
     4    10    11   ar
     5    11     1    1
     6     1     2   am
     7     2     3    2
     8     2     4   am
     9    18     4    1
    10    18    19    1
    11    19    20    1
    12    20    29    1
    13    29    30    1
    14    20    31    1
    15    31    32    1
    16    20    21    1
    17    21    22    1
    18    22    23   ar
    19    23    24   ar
    20    24    25    1
    21    24    26   ar
    22    26    27   ar
    23    27    28   ar
    24    11    12   ar
    25    12    13   ar
    26    13    14   ar
    27    14    15   ar
    28    15    16   ar
    29    16    17   ar
    30    17     8   ar
    31    15    10   ar
    32    28    18    1
    33    28    22   ar
    34     1     5    1
    35     4     6    1
@<TRIPOS>MOLECULE
*****
 32 35 0 0 0
SMALL
GASTEIGER

@<TRIPOS>ATOM
      1 N          63.1057   91.2272   12.3116 N.am    1  UNL1       -0.2683
      2 C          62.7877   90.0669   11.4155 C.2     1  UNL1        0.3047
      3 O          63.7122   89.7148   10.2880 O.2     1  UNL1       -0.2525
      4 N          61.5454   89.2589   11.6470 N.am    1  UNL1       -0.2863
      5 H          62.4989   91.4583   13.0516 H       1  UNL1        0.1564
      6 H          60.9386   89.4901   12.3870 H       1  UNL1        0.1512
      7 C          65.2893   92.0518   17.1903 C.3     1  UNL1        0.0521
      8 C          65.6752   92.4517   15.7970 C.ar    1  UNL1        0.0594
      9 C          64.8187   92.0435   14.6352 C.ar    1  UNL1        0.0160
     10 C          65.2046   92.4434   13.2419 C.ar    1  UNL1        0.0162
     11 C          64.3480   92.0352   12.0801 C.ar    1  UNL1        0.0516
     12 C          64.7339   92.4350   10.6868 C.ar    1  UNL1        0.0147
     13 C          65.9763   93.2431   10.4554 C.ar    1  UNL1        0.0013
     14 C          66.8328   93.6512   11.6172 C.ar    1  UNL1        0.0016
     15 C          66.4469   93.2514   13.0104 C.ar    1  UNL1        0.0204
     16 C          67.3034   93.6595   14.1722 C.ar    1  UNL1        0.0984
     17 N          66.9175   93.2597   15.5655 N.ar    1  UNL1       -0.2481
     18 C          61.2275   88.0988   10.7509 C.3     1  UNL1        0.1021
     19 C          60.3196   88.2884    9.5720 C.3     1  UNL1        0.0700
     20 C          60.0017   87.1282    8.6760 C.3     1  UNL1        0.2000
     21 O          60.5917   85.7784    8.9588 O.3     1  UNL1       -0.4771
     22 C          61.4996   85.5888   10.1377 C.ar    1  UNL1        0.1368
     23 C          62.0896   84.2391   10.4205 C.ar    1  UNL1        0.0480
     24 C          62.9976   84.0495   11.5994 C.ar    1  UNL1        0.0607
     25 CL         63.5876   82.6997   11.8821 Cl      1  UNL1       -0.0821
     26 C          63.3154   85.2096   12.4954 C.ar    1  UNL1        0.0113
     27 C          62.7254   86.5594   12.2126 C.ar    1  UNL1        0.0012
     28 C          61.8175   86.7490   11.0337 C.ar    1  UNL1        0.0297
     29 C          59.4072   86.3420    7.5453 C.3     1  UNL1        0.2357
     30 F          60.1431   85.1617    6.9839 F       1  UNL1       -0.2303
     31 C          59.2052   88.2049    8.0005 C.3     1  UNL1        0.2357
     32 F          59.9073   89.3473    7.3281 F       1  UNL1       -0.2303
@<TRIPOS>BOND
     1     7     8    1
     2     8     9   ar
     3     9    10   ar
     4    10    11   ar
     5    11     1    1
     6     1     2   am
     7     2     3    2
     8     2     4   am
     9    18     4    1
    10    18    19    1
    11    19    20    1
    12    20    29    1
    13    29    30    1
    14    20    31    1
    15    31    32    1
    16    20    21    1
    17    21    22    1
    18    22    23   ar
    19    23    24   ar
    20    24    25    1
    21    24    26   ar
    22    26    27   ar
    23    27    28   ar
    24    11    12   ar
    25    12    13   ar
    26    13    14   ar
    27    14    15   ar
    28    15    16   ar
    29    16    17   ar
    30    17     8   ar
    31    15    10   ar
    32    28    18    1
    33    28    22   ar
    34     1     5    1
    35     4     6    1
@<TRIPOS>MOLECULE
*****
 32 35 0 0 0
SMALL
GASTEIGER

@<TRIPOS>ATOM
      1 N          62.3963   85.8484    9.1283 N.am    1  UNL1       -0.2683
      2 C          62.4289   85.3803   10.5531 C.2     1  UNL1        0.3047
      3 O          61.3355   85.7800   11.4990 O.2     1  UNL1       -0.2525
      4 N          63.5549   84.5126   11.0319 N.am    1  UNL1       -0.2863
      5 H          63.1139   85.5861    8.5075 H       1  UNL1        0.1564
      6 H          64.2725   84.2503   10.4111 H       1  UNL1        0.1512
      7 C          62.8572   90.5207   11.8130 C.3     1  UNL1        0.0521
      8 C          61.8975   90.0034   10.7828 C.ar    1  UNL1        0.0594
      9 C          62.0638   88.6184   10.2313 C.ar    1  UNL1        0.0160
     10 C          61.1041   88.1012    9.2010 C.ar    1  UNL1        0.0162
     11 C          61.2704   86.7161    8.6496 C.ar    1  UNL1        0.0516
     12 C          60.3107   86.1989    7.6193 C.ar    1  UNL1        0.0147
     13 C          59.1847   87.0667    7.1405 C.ar    1  UNL1        0.0013
     14 C          59.0184   88.4516    7.6920 C.ar    1  UNL1        0.0016
     15 C          59.9781   88.9689    8.7223 C.ar    1  UNL1        0.0204
     16 C          59.8119   90.3538    9.2737 C.ar    1  UNL1        0.0984
     17 N          60.7716   90.8711   10.3040 N.ar    1  UNL1       -0.2481
     18 C          63.5874   84.0446   12.4566 C.3     1  UNL1        0.1021
     19 C          63.9366   85.0057   13.5540 C.3     1  UNL1        0.0700
     20 C          63.9691   84.5376   14.9788 C.3     1  UNL1        0.2000
     21 O          63.6525   83.1084   15.3061 O.3     1  UNL1       -0.4771
     22 C          63.3034   82.1473   14.2087 C.ar    1  UNL1        0.1368
     23 C          62.9867   80.7181   14.5359 C.ar    1  UNL1        0.0480
     24 C          62.6376   79.7570   13.4385 C.ar    1  UNL1        0.0607
     25 CL         62.3210   78.3277   13.7659 Cl      1  UNL1       -0.0821
     26 C          62.6050   80.2250   12.0138 C.ar    1  UNL1        0.0113
     27 C          62.9216   81.6542   11.6865 C.ar    1  UNL1        0.0012
     28 C          63.2708   82.6153   12.7840 C.ar    1  UNL1        0.0297
     29 C          64.1312   84.5698   16.4696 C.3     1  UNL1        0.2357
     30 F          63.7198   85.7876   17.2427 F       1  UNL1       -0.2303
     31 C          64.3420   85.9780   15.1692 C.3     1  UNL1        0.2357
     32 F          64.2660   86.9315   14.0138 F       1  UNL1       -0.2303
@<TRIPOS>BOND
     1     7     8    1
     2     8     9   ar
     3     9    10   ar
     4    10    11   ar
     5    11     1    1
     6     1     2   am
     7     2     3    2
     8     2     4   am
     9    18     4    1
    10    18    19    1
    11    19    20    1
    12    20    29    1
    13    29    30    1
    14    20    31    1
    15    31    32    1
    16    20    21    1
    17    21    22    1
    18    22    23   ar
    19    23    24   ar
    20    24    25    1
    21    24    26   ar
    22    26    27   ar
    23    27    28   ar
    24    11    12   ar
    25    12    13   ar
    26    13    14   ar
    27    14    15   ar
    28    15    16   ar
    29    16    17   ar
    30    17     8   ar
    31    15    10   ar
    32    28    18    1
    33    28    22   ar
    34     1     5    1
    35     4     6    1
