@<TRIPOS>MOLECULE
*****
 27 30 0 0 0
SMALL
GASTEIGER

@<TRIPOS>ATOM
      1 C          64.3127   91.2306   13.1667 C.3     1  UNL1        0.2120
      2 O          63.5921   91.3829   11.8600 O.3     1  UNL1       -0.4344
      3 C          63.0961   90.0298   11.4438 C.2     1  UNL1        0.4089
      4 O          62.3219   89.7196   10.1970 O.2     1  UNL1       -0.2258
      5 N          63.5102   89.0413   12.4932 N.am    1  UNL1       -0.2163
      6 C          63.2998   87.5613   12.6169 C.ar    1  UNL1        0.0933
      7 C          62.5479   86.8191   11.5520 C.ar    1  UNL1        0.0490
      8 C          62.3375   85.3391   11.6756 C.ar    1  UNL1        0.1548
      9 F          61.5856   84.5969   10.6108 F       1  UNL1       -0.2028
     10 C          62.8790   84.6012   12.8641 C.ar    1  UNL1        0.0788
     11 C          63.6309   85.3434   13.9289 C.ar    1  UNL1        0.0550
     12 C          63.8413   86.8234   13.8053 C.ar    1  UNL1        0.1536
     13 O          64.5932   87.5656   14.8701 O.3     1  UNL1       -0.4722
     14 C          64.8036   89.0455   14.7465 C.3     1  UNL1        0.2293
     15 C          64.2621   89.7834   13.5580 C.3     1  UNL1        0.1682
     16 N          62.6686   83.1212   12.9876 N.pl3   1  UNL1       -0.3039
     17 C          63.1571   82.2015   11.9081 C.3     1  UNL1        0.1025
     18 C          62.9466   80.7215   12.0317 C.3     1  UNL1        0.0790
     19 S          62.2477   80.1612   13.2349 S.3     1  UNL1       -0.1367
     20 C          61.7592   81.0809   14.3144 C.3     1  UNL1        0.0790
     21 C          61.9696   82.5609   14.1908 C.3     1  UNL1        0.1025
     22 C          64.9688   92.3321   13.9453 C.3     1  UNL1        0.1353
     23 C          68.3707   92.3732   15.9886 C.3     1  UNL1        0.0946
     24 C          66.9064   92.4477   15.6723 C.2     1  UNL1        0.2231
     25 O          65.9152   92.7123   16.7666 O.2     1  UNL1       -0.2751
     26 N          66.4331   92.2576   14.2617 N.am    1  UNL1       -0.3011
     27 H          67.0837   92.0840   13.5434 H       1  UNL1        0.1495
@<TRIPOS>BOND
     1    23    24    1
     2    24    25    2
     3    24    26   am
     4    26    22    1
     5     1    22    1
     6     1     2    1
     7     2     3    1
     8     3     4    2
     9     3     5   am
    10     5     6    1
    11     6     7   ar
    12     7     8   ar
    13     8     9    1
    14     8    10   ar
    15    10    16    1
    16    16    17    1
    17    17    18    1
    18    18    19    1
    19    19    20    1
    20    20    21    1
    21    10    11   ar
    22    11    12   ar
    23    12    13    1
    24    13    14    1
    25    15    14    1
    26    15     1    1
    27    15     5    1
    28    12     6   ar
    29    21    16    1
    30    26    27    1
@<TRIPOS>MOLECULE
*****
 27 30 0 0 0
SMALL
GASTEIGER

@<TRIPOS>ATOM
      1 C          60.2040   88.4006    8.8808 C.3     1  UNL1        0.2120
      2 O          60.1686   87.1293    9.6760 O.3     1  UNL1       -0.4344
      3 C          61.1149   87.2781   10.8304 C.2     1  UNL1        0.4089
      4 O          61.3922   86.2450   11.8819 O.2     1  UNL1       -0.2258
      5 N          61.7351   88.6414   10.7486 N.am    1  UNL1       -0.2163
      6 C          62.7397   89.3407   11.6155 C.ar    1  UNL1        0.0933
      7 C          63.3027   88.6469   12.8205 C.ar    1  UNL1        0.0490
      8 C          64.3073   89.3463   13.6874 C.ar    1  UNL1        0.1548
      9 F          64.8703   88.6525   14.8924 F       1  UNL1       -0.2028
     10 C          64.7490   90.7394   13.3495 C.ar    1  UNL1        0.0788
     11 C          64.1861   91.4331   12.1446 C.ar    1  UNL1        0.0550
     12 C          63.1814   90.7338   11.2776 C.ar    1  UNL1        0.1536
     13 O          62.6185   91.4276   10.0727 O.3     1  UNL1       -0.4722
     14 C          61.6139   90.7282    9.2058 C.3     1  UNL1        0.2293
     15 C          61.1722   89.3351    9.5437 C.3     1  UNL1        0.1682
     16 N          65.7537   91.4387   14.2165 N.pl3   1  UNL1       -0.3039
     17 C          65.3592   91.9237   15.5800 C.3     1  UNL1        0.1025
     18 C          66.3639   92.6229   16.4470 C.3     1  UNL1        0.0790
     19 S          67.7630   92.8372   15.9504 S.3     1  UNL1       -0.1367
     20 C          68.1574   92.3523   14.5869 C.3     1  UNL1        0.0790
     21 C          67.1528   91.6530   13.7200 C.3     1  UNL1        0.1025
     22 C          59.4106   88.6871    7.6405 C.3     1  UNL1        0.1353
     23 C          59.3722   91.5078    4.8490 C.3     1  UNL1        0.0946
     24 C          58.8967   90.4680    5.8200 C.2     1  UNL1        0.2231
     25 O          57.4318   90.1694    5.9414 O.2     1  UNL1       -0.2751
     26 N          59.8861   89.7269    6.6695 N.am    1  UNL1       -0.3011
     27 H          60.8476   89.9229    6.5899 H       1  UNL1        0.1495
@<TRIPOS>BOND
     1    23    24    1
     2    24    25    2
     3    24    26   am
     4    26    22    1
     5     1    22    1
     6     1     2    1
     7     2     3    1
     8     3     4    2
     9     3     5   am
    10     5     6    1
    11     6     7   ar
    12     7     8   ar
    13     8     9    1
    14     8    10   ar
    15    10    16    1
    16    16    17    1
    17    17    18    1
    18    18    19    1
    19    19    20    1
    20    20    21    1
    21    10    11   ar
    22    11    12   ar
    23    12    13    1
    24    13    14    1
    25    15    14    1
    26    15     1    1
    27    15     5    1
    28    12     6   ar
    29    21    16    1
    30    26    27    1
@<TRIPOS>MOLECULE
*****
 27 30 0 0 0
SMALL
GASTEIGER

@<TRIPOS>ATOM
      1 C          60.4871   86.7622    9.3826 C.3     1  UNL1        0.2120
      2 O          60.7508   85.6019   10.2959 O.3     1  UNL1       -0.4344
      3 C          61.6732   86.0680   11.3830 C.2     1  UNL1        0.4089
      4 O          62.1972   85.2324   12.5132 O.2     1  UNL1       -0.2258
      5 N          61.9796   87.5163   11.1417 N.am    1  UNL1       -0.2163
      6 C          62.8314   88.5000   11.8879 C.ar    1  UNL1        0.0933
      7 C          63.5645   88.0710   13.1243 C.ar    1  UNL1        0.0490
      8 C          64.4163   89.0546   13.8705 C.ar    1  UNL1        0.1548
      9 F          65.1494   88.6256   15.1069 F       1  UNL1       -0.2028
     10 C          64.5350   90.4673   13.3804 C.ar    1  UNL1        0.0788
     11 C          63.8020   90.8963   12.1441 C.ar    1  UNL1        0.0550
     12 C          62.9502   89.9127   11.3978 C.ar    1  UNL1        0.1536
     13 O          62.2171   90.3417   10.1615 O.3     1  UNL1       -0.4722
     14 C          61.3654   89.3581    9.4152 C.3     1  UNL1        0.2293
     15 C          61.2466   87.9454    9.9053 C.3     1  UNL1        0.1682
     16 N          65.3869   91.4509   14.1267 N.pl3   1  UNL1       -0.3039
     17 C          65.1132   91.7334   15.5742 C.3     1  UNL1        0.1025
     18 C          65.9650   92.7170   16.3204 C.3     1  UNL1        0.0790
     19 S          67.0905   93.4182   15.6191 S.3     1  UNL1       -0.1367
     20 C          67.3641   93.1357   14.1716 C.3     1  UNL1        0.0790
     21 C          66.5123   92.1520   13.4254 C.3     1  UNL1        0.1025
     22 C          59.6168   86.7427    8.1611 C.3     1  UNL1        0.1353
     23 C          61.4136   84.0777    5.8332 C.3     1  UNL1        0.0946
     24 C          61.1982   85.1191    6.8910 C.2     1  UNL1        0.2231
     25 O          62.3488   85.5784    7.7367 O.2     1  UNL1       -0.2751
     26 N          59.8322   85.7013    7.1032 N.am    1  UNL1       -0.3011
     27 H          59.0770   85.3999    6.5482 H       1  UNL1        0.1495
@<TRIPOS>BOND
     1    23    24    1
     2    24    25    2
     3    24    26   am
     4    26    22    1
     5     1    22    1
     6     1     2    1
     7     2     3    1
     8     3     4    2
     9     3     5   am
    10     5     6    1
    11     6     7   ar
    12     7     8   ar
    13     8     9    1
    14     8    10   ar
    15    10    16    1
    16    16    17    1
    17    17    18    1
    18    18    19    1
    19    19    20    1
    20    20    21    1
    21    10    11   ar
    22    11    12   ar
    23    12    13    1
    24    13    14    1
    25    15    14    1
    26    15     1    1
    27    15     5    1
    28    12     6   ar
    29    21    16    1
    30    26    27    1
@<TRIPOS>MOLECULE
*****
 27 30 0 0 0
SMALL
GASTEIGER

@<TRIPOS>ATOM
      1 C          63.5107   90.7710   11.8690 C.3     1  UNL1        0.2120
      2 O          64.1852   90.8636   13.2056 O.3     1  UNL1       -0.4344
      3 C          64.2333   89.4860   13.7970 C.2     1  UNL1        0.4089
      4 O          64.8227   89.1171   15.1261 O.2     1  UNL1       -0.2258
      5 N          63.5885   88.5419   12.8260 N.am    1  UNL1       -0.2163
      6 C          63.3503   87.0617   12.8728 C.ar    1  UNL1        0.0933
      7 C          63.7969   86.2675   14.0644 C.ar    1  UNL1        0.0490
      8 C          63.5587   84.7873   14.1113 C.ar    1  UNL1        0.1548
      9 F          64.0052   83.9930   15.3029 F       1  UNL1       -0.2028
     10 C          62.8739   84.1012   12.9665 C.ar    1  UNL1        0.0788
     11 C          62.4273   84.8953   11.7750 C.ar    1  UNL1        0.0550
     12 C          62.6655   86.3756   11.7281 C.ar    1  UNL1        0.1536
     13 O          62.2190   87.1698   10.5365 O.3     1  UNL1       -0.4722
     14 C          62.4572   88.6500   10.4897 C.3     1  UNL1        0.2293
     15 C          63.1420   89.3360   11.6344 C.3     1  UNL1        0.1682
     16 N          62.6357   82.6209   13.0134 N.pl3   1  UNL1       -0.3039
     17 C          63.1142   81.7484   11.8911 C.3     1  UNL1        0.1025
     18 C          62.8760   80.2682   11.9380 C.3     1  UNL1        0.0790
     19 S          62.1593   79.6606   13.1072 S.3     1  UNL1       -0.1367
     20 C          61.6808   80.5331   14.2295 C.3     1  UNL1        0.0790
     21 C          61.9190   82.0133   14.1826 C.3     1  UNL1        0.1025
     22 C          63.2507   91.9127   10.9316 C.3     1  UNL1        0.1353
     23 C          66.5981   93.7235    9.8064 C.3     1  UNL1        0.0946
     24 C          65.4930   93.1996   10.6749 C.2     1  UNL1        0.2231
     25 O          65.5252   93.4387   12.1554 O.2     1  UNL1       -0.2751
     26 N          64.3557   92.4366   10.0631 N.am    1  UNL1       -0.3011
     27 H          64.3346   92.2797    9.0914 H       1  UNL1        0.1495
@<TRIPOS>BOND
     1    23    24    1
     2    24    25    2
     3    24    26   am
     4    26    22    1
     5     1    22    1
     6     1     2    1
     7     2     3    1
     8     3     4    2
     9     3     5   am
    10     5     6    1
    11     6     7   ar
    12     7     8   ar
    13     8     9    1
    14     8    10   ar
    15    10    16    1
    16    16    17    1
    17    17    18    1
    18    18    19    1
    19    19    20    1
    20    20    21    1
    21    10    11   ar
    22    11    12   ar
    23    12    13    1
    24    13    14    1
    25    15    14    1
    26    15     1    1
    27    15     5    1
    28    12     6   ar
    29    21    16    1
    30    26    27    1
@<TRIPOS>MOLECULE
*****
 27 30 0 0 0
SMALL
GASTEIGER

@<TRIPOS>ATOM
      1 C          63.0479   82.3536   12.4485 C.3     1  UNL1        0.2120
      2 O          62.4670   82.9031   11.1794 O.3     1  UNL1       -0.4344
      3 C          62.5711   84.3986   11.2314 C.2     1  UNL1        0.4089
      4 O          62.1108   85.3520   10.1687 O.2     1  UNL1       -0.2258
      5 N          63.2164   84.7734   12.5326 N.am    1  UNL1       -0.2163
      6 C          63.5737   86.1022   13.1297 C.ar    1  UNL1        0.0933
      7 C          63.2790   87.3661   12.3775 C.ar    1  UNL1        0.0490
      8 C          63.6364   88.6949   12.9746 C.ar    1  UNL1        0.1548
      9 F          63.3417   89.9588   12.2224 F       1  UNL1       -0.2028
     10 C          64.2884   88.7599   14.3239 C.ar    1  UNL1        0.0788
     11 C          64.5830   87.4960   15.0761 C.ar    1  UNL1        0.0550
     12 C          64.2257   86.1671   14.4790 C.ar    1  UNL1        0.1536
     13 O          64.5204   84.9033   15.2312 O.3     1  UNL1       -0.4722
     14 C          64.1631   83.5745   14.6341 C.3     1  UNL1        0.2293
     15 C          63.5110   83.5096   13.2848 C.3     1  UNL1        0.1682
     16 N          64.6457   90.0887   14.9210 N.pl3   1  UNL1       -0.3039
     17 C          65.8327   90.8475   14.4061 C.3     1  UNL1        0.1025
     18 C          66.1900   92.1763   15.0032 C.3     1  UNL1        0.0790
     19 S          65.3603   92.7463   16.1152 S.3     1  UNL1       -0.1367
     20 C          64.1732   91.9876   16.6302 C.3     1  UNL1        0.0790
     21 C          63.8160   90.6588   16.0331 C.3     1  UNL1        0.1025
     22 C          63.1481   80.9030   12.8166 C.3     1  UNL1        0.1353
     23 C          59.6271   79.8601   14.3217 C.3     1  UNL1        0.0946
     24 C          60.8709   80.6504   14.0416 C.2     1  UNL1        0.2231
     25 O          61.0812   81.9785   14.7063 O.2     1  UNL1       -0.2751
     26 N          61.9043   80.1127   13.0967 N.am    1  UNL1       -0.3011
     27 H          61.7663   79.2410   12.6604 H       1  UNL1        0.1495
@<TRIPOS>BOND
     1    23    24    1
     2    24    25    2
     3    24    26   am
     4    26    22    1
     5     1    22    1
     6     1     2    1
     7     2     3    1
     8     3     4    2
     9     3     5   am
    10     5     6    1
    11     6     7   ar
    12     7     8   ar
    13     8     9    1
    14     8    10   ar
    15    10    16    1
    16    16    17    1
    17    17    18    1
    18    18    19    1
    19    19    20    1
    20    20    21    1
    21    10    11   ar
    22    11    12   ar
    23    12    13    1
    24    13    14    1
    25    15    14    1
    26    15     1    1
    27    15     5    1
    28    12     6   ar
    29    21    16    1
    30    26    27    1
@<TRIPOS>MOLECULE
*****
 27 30 0 0 0
SMALL
GASTEIGER

@<TRIPOS>ATOM
      1 C          59.3361   88.9968    7.0555 C.3     1  UNL1        0.2120
      2 O          59.1880   87.6505    6.4108 O.3     1  UNL1       -0.4344
      3 C          59.8491   86.6369    7.2971 C.2     1  UNL1        0.4089
      4 O          59.9379   85.1624    7.0367 O.2     1  UNL1       -0.2258
      5 N          60.4059   87.3567    8.4895 N.am    1  UNL1       -0.2163
      6 C          61.1606   86.8725    9.6920 C.ar    1  UNL1        0.0933
      7 C          61.4776   85.4140    9.8413 C.ar    1  UNL1        0.0490
      8 C          62.2323   84.9298   11.0438 C.ar    1  UNL1        0.1548
      9 F          62.5494   83.4713   11.1931 F       1  UNL1       -0.2028
     10 C          62.6699   85.9041   12.0970 C.ar    1  UNL1        0.0788
     11 C          62.3529   87.3625   11.9477 C.ar    1  UNL1        0.0550
     12 C          61.5982   87.8468   10.7452 C.ar    1  UNL1        0.1536
     13 O          61.2812   89.3052   10.5959 O.3     1  UNL1       -0.4722
     14 C          60.5265   89.7894    9.3935 C.3     1  UNL1        0.2293
     15 C          60.0888   88.8151    8.3403 C.3     1  UNL1        0.1682
     16 N          63.4247   85.4198   13.2995 N.pl3   1  UNL1       -0.3039
     17 C          63.3619   83.9735   13.6920 C.3     1  UNL1        0.1025
     18 C          64.1166   83.4893   14.8945 C.3     1  UNL1        0.0790
     19 S          64.9341   84.4515   15.7045 S.3     1  UNL1       -0.1367
     20 C          64.9968   85.8978   15.3120 C.3     1  UNL1        0.0790
     21 C          64.2421   86.3820   14.1095 C.3     1  UNL1        0.1025
     22 C          58.8219   90.2964    6.5111 C.3     1  UNL1        0.1353
     23 C          59.7393   92.7387    3.5205 C.3     1  UNL1        0.0946
     24 C          58.9372   91.9815    4.5369 C.2     1  UNL1        0.2231
     25 O          57.4481   92.1521    4.5957 O.2     1  UNL1       -0.2751
     26 N          59.6240   91.0536    5.4947 N.am    1  UNL1       -0.3011
     27 H          60.6014   90.9416    5.4561 H       1  UNL1        0.1495
@<TRIPOS>BOND
     1    23    24    1
     2    24    25    2
     3    24    26   am
     4    26    22    1
     5     1    22    1
     6     1     2    1
     7     2     3    1
     8     3     4    2
     9     3     5   am
    10     5     6    1
    11     6     7   ar
    12     7     8   ar
    13     8     9    1
    14     8    10   ar
    15    10    16    1
    16    16    17    1
    17    17    18    1
    18    18    19    1
    19    19    20    1
    20    20    21    1
    21    10    11   ar
    22    11    12   ar
    23    12    13    1
    24    13    14    1
    25    15    14    1
    26    15     1    1
    27    15     5    1
    28    12     6   ar
    29    21    16    1
    30    26    27    1
@<TRIPOS>MOLECULE
*****
 27 30 0 0 0
SMALL
GASTEIGER

@<TRIPOS>ATOM
      1 C          62.7620   82.7153   12.6354 C.3     1  UNL1        0.2120
      2 O          62.1271   83.2756   11.3974 O.3     1  UNL1       -0.4344
      3 C          62.3008   84.7654   11.4209 C.2     1  UNL1        0.4089
      4 O          61.8172   85.7261   10.3754 O.2     1  UNL1       -0.2258
      5 N          63.0431   85.1257   12.6735 N.am    1  UNL1       -0.2163
      6 C          63.4964   86.4439   13.2276 C.ar    1  UNL1        0.0933
      7 C          63.2114   87.7109   12.4770 C.ar    1  UNL1        0.0490
      8 C          63.6646   89.0290   13.0311 C.ar    1  UNL1        0.1548
      9 F          63.3796   90.2961   12.2805 F       1  UNL1       -0.2028
     10 C          64.4029   89.0802   14.3359 C.ar    1  UNL1        0.0788
     11 C          64.6879   87.8132   15.0865 C.ar    1  UNL1        0.0550
     12 C          64.2347   86.4950   14.5324 C.ar    1  UNL1        0.1536
     13 O          64.5197   85.2280   15.2830 O.3     1  UNL1       -0.4722
     14 C          64.0664   83.9099   14.7289 C.3     1  UNL1        0.2293
     15 C          63.3282   83.8588   13.4242 C.3     1  UNL1        0.1682
     16 N          64.8561   90.3984   14.8900 N.pl3   1  UNL1       -0.3039
     17 C          64.1329   91.0121   16.0519 C.3     1  UNL1        0.1025
     18 C          64.5861   92.3303   16.6060 C.3     1  UNL1        0.0790
     19 S          65.7627   93.0347   15.9981 S.3     1  UNL1       -0.1367
     20 C          66.4860   92.4210   14.8361 C.3     1  UNL1        0.0790
     21 C          66.0327   91.1028   14.2821 C.3     1  UNL1        0.1025
     22 C          62.8205   81.2660   13.0177 C.3     1  UNL1        0.1353
     23 C          62.7967   79.2561    9.5958 C.3     1  UNL1        0.0946
     24 C          63.0968   80.3136   10.6164 C.2     1  UNL1        0.2231
     25 O          63.9733   81.4764   10.2561 O.2     1  UNL1       -0.2751
     26 N          62.5204   80.2085   11.9972 N.am    1  UNL1       -0.3011
     27 H          61.9451   79.4454   12.2336 H       1  UNL1        0.1495
@<TRIPOS>BOND
     1    23    24    1
     2    24    25    2
     3    24    26   am
     4    26    22    1
     5     1    22    1
     6     1     2    1
     7     2     3    1
     8     3     4    2
     9     3     5   am
    10     5     6    1
    11     6     7   ar
    12     7     8   ar
    13     8     9    1
    14     8    10   ar
    15    10    16    1
    16    16    17    1
    17    17    18    1
    18    18    19    1
    19    19    20    1
    20    20    21    1
    21    10    11   ar
    22    11    12   ar
    23    12    13    1
    24    13    14    1
    25    15    14    1
    26    15     1    1
    27    15     5    1
    28    12     6   ar
    29    21    16    1
    30    26    27    1
@<TRIPOS>MOLECULE
*****
 27 30 0 0 0
SMALL
GASTEIGER

@<TRIPOS>ATOM
      1 C          59.7507   89.5921    7.7932 C.3     1  UNL1        0.2120
      2 O          60.2717   90.6050    8.7693 O.3     1  UNL1       -0.4344
      3 C          61.0106   89.8711    9.8488 C.2     1  UNL1        0.4089
      4 O          61.6939   90.4942   11.0298 O.2     1  UNL1       -0.2258
      5 N          60.9464   88.4046    9.5400 N.am    1  UNL1       -0.2163
      6 C          61.4963   87.2041   10.2514 C.ar    1  UNL1        0.0933
      7 C          62.2750   87.3765   11.5218 C.ar    1  UNL1        0.0490
      8 C          62.8249   86.1759   12.2332 C.ar    1  UNL1        0.1548
      9 F          63.6036   86.3483   13.5037 F       1  UNL1       -0.2028
     10 C          62.5962   84.8028   11.6742 C.ar    1  UNL1        0.0788
     11 C          61.8176   84.6304   10.4038 C.ar    1  UNL1        0.0550
     12 C          61.2676   85.8310    9.6924 C.ar    1  UNL1        0.1536
     13 O          60.4890   85.6586    8.4220 O.3     1  UNL1       -0.4722
     14 C          59.9391   86.8592    7.7106 C.3     1  UNL1        0.2293
     15 C          60.1678   88.2322    8.2696 C.3     1  UNL1        0.1682
     16 N          63.1462   83.6022   12.3857 N.pl3   1  UNL1       -0.3039
     17 C          62.6609   83.2589   13.7628 C.3     1  UNL1        0.1025
     18 C          63.2108   82.0584   14.4742 C.3     1  UNL1        0.0790
     19 S          64.2461   81.2011   13.8085 S.3     1  UNL1       -0.1367
     20 C          64.7314   81.5444   12.4313 C.3     1  UNL1        0.0790
     21 C          64.1815   82.7449   11.7199 C.3     1  UNL1        0.1025
     22 C          58.9529   89.8872    6.5578 C.3     1  UNL1        0.1353
     23 C          59.2648   92.5508    3.6324 C.3     1  UNL1        0.0946
     24 C          58.6756   91.7037    4.7211 C.2     1  UNL1        0.2231
     25 O          57.2199   91.8259    5.0617 O.2     1  UNL1       -0.2751
     26 N          59.5421   90.7344    5.4691 N.am    1  UNL1       -0.3011
     27 H          60.4975   90.6542    5.2455 H       1  UNL1        0.1495
@<TRIPOS>BOND
     1    23    24    1
     2    24    25    2
     3    24    26   am
     4    26    22    1
     5     1    22    1
     6     1     2    1
     7     2     3    1
     8     3     4    2
     9     3     5   am
    10     5     6    1
    11     6     7   ar
    12     7     8   ar
    13     8     9    1
    14     8    10   ar
    15    10    16    1
    16    16    17    1
    17    17    18    1
    18    18    19    1
    19    19    20    1
    20    20    21    1
    21    10    11   ar
    22    11    12   ar
    23    12    13    1
    24    13    14    1
    25    15    14    1
    26    15     1    1
    27    15     5    1
    28    12     6   ar
    29    21    16    1
    30    26    27    1
@<TRIPOS>MOLECULE
*****
 27 30 0 0 0
SMALL
GASTEIGER

@<TRIPOS>ATOM
      1 C          54.5526   95.3942   -1.9459 C.3     1  UNL1        0.2120
      2 O          54.3395   93.9195   -2.1189 O.3     1  UNL1       -0.4344
      3 C          55.6247   93.2228   -1.7828 C.2     1  UNL1        0.4089
      4 O          55.8610   91.7421   -1.8208 O.2     1  UNL1       -0.2258
      5 N          56.6321   94.2669   -1.4021 N.am    1  UNL1       -0.2163
      6 C          58.0672   94.1691   -0.9767 C.ar    1  UNL1        0.0933
      7 C          58.7298   92.8271   -0.8759 C.ar    1  UNL1        0.0490
      8 C          60.1648   92.7293   -0.4505 C.ar    1  UNL1        0.1548
      9 F          60.8275   91.3873   -0.3497 F       1  UNL1       -0.2028
     10 C          60.9373   93.9734   -0.1259 C.ar    1  UNL1        0.0788
     11 C          60.2748   95.3154   -0.2266 C.ar    1  UNL1        0.0550
     12 C          58.8397   95.4132   -0.6520 C.ar    1  UNL1        0.1536
     13 O          58.1771   96.7552   -0.7528 O.3     1  UNL1       -0.4722
     14 C          56.7421   96.8530   -1.1782 C.3     1  UNL1        0.2293
     15 C          55.9696   95.6089   -1.5029 C.3     1  UNL1        0.1682
     16 N          62.3725   93.8756    0.2996 N.pl3   1  UNL1       -0.3039
     17 C          63.4497   93.7025   -0.7297 C.3     1  UNL1        0.1025
     18 C          64.8847   93.6046   -0.3043 C.3     1  UNL1        0.0790
     19 S          65.2425   93.6799    1.1505 S.3     1  UNL1       -0.1367
     20 C          64.1653   93.8530    2.1798 C.3     1  UNL1        0.0790
     21 C          62.7302   93.9508    1.7543 C.3     1  UNL1        0.1025
     22 C          53.5286   96.4659   -2.1755 C.3     1  UNL1        0.1353
     23 C          51.1061   96.3571   -5.3171 C.3     1  UNL1        0.0946
     24 C          51.6521   96.1242   -3.9396 C.2     1  UNL1        0.2231
     25 O          50.8674   95.3168   -2.9484 O.2     1  UNL1       -0.2751
     26 N          52.9826   96.6988   -3.5531 N.am    1  UNL1       -0.3011
     27 H          53.4977   97.2287   -4.2036 H       1  UNL1        0.1495
@<TRIPOS>BOND
     1    23    24    1
     2    24    25    2
     3    24    26   am
     4    26    22    1
     5     1    22    1
     6     1     2    1
     7     2     3    1
     8     3     4    2
     9     3     5   am
    10     5     6    1
    11     6     7   ar
    12     7     8   ar
    13     8     9    1
    14     8    10   ar
    15    10    16    1
    16    16    17    1
    17    17    18    1
    18    18    19    1
    19    19    20    1
    20    20    21    1
    21    10    11   ar
    22    11    12   ar
    23    12    13    1
    24    13    14    1
    25    15    14    1
    26    15     1    1
    27    15     5    1
    28    12     6   ar
    29    21    16    1
    30    26    27    1
