@<TRIPOS>MOLECULE
*****
 23 27 0 0 0
SMALL
GASTEIGER

@<TRIPOS>ATOM
      1 O          61.8443   84.9777   11.0073 O.2     1  UNL1       -0.2699
      2 C          62.6044   85.7307   12.0586 C.2     1  UNL1        0.2506
      3 C          62.6866   87.2157   11.8641 C.ar    1  UNL1        0.0731
      4 C          61.9797   87.6886   10.6286 C.ar    1  UNL1        0.0357
      5 C          61.9653   89.1485   10.2850 C.ar    1  UNL1        0.1404
      6 F          61.2583   89.6214    9.0493 F       1  UNL1       -0.2042
      7 C          62.6580   90.1358   11.1770 C.ar    1  UNL1        0.0327
      8 C          63.3649   89.6630   12.4125 C.ar    1  UNL1        0.0405
      9 C          64.1290   90.3967   13.4745 C.ar    1  UNL1        0.1216
     10 N          64.6156   89.3900   14.4745 N.ar    1  UNL1       -0.1677
     11 N          64.1522   88.0342   14.0305 N.ar    1  UNL1       -0.2490
     12 C          63.3793   88.2029   12.7561 C.ar    1  UNL1        0.0839
     13 C          64.4068   86.7373   14.7229 C.3     1  UNL1        0.1489
     14 C          63.9838   85.3470   14.3512 C.3     1  UNL1        0.1200
     15 N          63.1817   84.8990   13.1655 N.am    1  UNL1       -0.2742
     16 C          62.6701   81.9382   12.9968 C.3     1  UNL1        0.0917
     17 C          62.6577   81.9579   13.0261 C.3     1  UNL1        0.0921
     18 N          63.1616   81.1596   11.8365 N.3     1  UNL1       -0.2713
     19 C          62.4050   80.4725   12.9345 C.3     1  UNL1        0.0722
     20 C          61.9073   81.2609   14.1095 C.3     1  UNL1        0.0191
     21 C          62.1662   82.7365   14.1865 C.3     1  UNL1        0.0224
     22 C          62.4587   82.3465   13.5228 C.3     1  UNL1        0.0191
     23 C          62.9086   81.6336   12.4604 C.3     1  UNL1        0.0722
@<TRIPOS>BOND
     1     1     2    2
     2     2     3    1
     3     3     4   ar
     4     4     5   ar
     5     5     6    1
     6     5     7   ar
     7     7     8   ar
     8     8     9   ar
     9     9    10   ar
    10    10    11   ar
    11    11    12   ar
    12    11    13    1
    13    13    14    1
    14    14    15    1
    15    16    15    1
    16    16    17    1
    17    17    18    1
    18    18    19    1
    19    19    20    1
    20    20    21    1
    21    21    22    1
    22    22    23    1
    23    15     2   am
    24    21    16    1
    25    12     3   ar
    26    23    18    1
    27    12     8   ar
@<TRIPOS>MOLECULE
*****
 23 27 0 0 0
SMALL
GASTEIGER

@<TRIPOS>ATOM
      1 O          63.8793   85.5610   13.8284 O.2     1  UNL1       -0.2699
      2 C          63.1768   86.2328   12.6859 C.2     1  UNL1        0.2506
      3 C          63.2768   87.7290   12.6496 C.ar    1  UNL1        0.0731
      4 C          64.0774   88.2941   13.7852 C.ar    1  UNL1        0.0357
      5 C          64.2755   89.7765   13.8984 C.ar    1  UNL1        0.1404
      6 F          65.0762   90.3417   15.0341 F       1  UNL1       -0.2042
      7 C          63.6731   90.6940   12.8760 C.ar    1  UNL1        0.0327
      8 C          62.8724   90.1289   11.7404 C.ar    1  UNL1        0.0405
      9 C          62.1632   90.7805   10.5904 C.ar    1  UNL1        0.1216
     10 N          61.5268   89.7007    9.7665 N.ar    1  UNL1       -0.1677
     11 N          61.8426   88.3817   10.4073 N.ar    1  UNL1       -0.2490
     12 C          62.6743   88.6464   11.6272 C.ar    1  UNL1        0.0839
     13 C          61.4130   87.0355    9.9283 C.3     1  UNL1        0.1489
     14 C          61.6821   85.6766   10.5036 C.3     1  UNL1        0.1200
     15 N          62.4671   85.3193   11.7309 N.am    1  UNL1       -0.2742
     16 C          62.6322   82.3784   12.3472 C.3     1  UNL1        0.0917
     17 C          62.6481   82.3921   12.3164 C.3     1  UNL1        0.0921
     18 N          61.9986   81.8343   13.5707 N.3     1  UNL1       -0.2713
     19 C          62.7267   80.9182   12.6323 C.3     1  UNL1        0.0722
     20 C          63.3682   81.4691   11.3934 C.3     1  UNL1        0.0191
     21 C          63.2817   82.9362   11.0929 C.3     1  UNL1        0.0224
     22 C          62.9143   82.6807   11.7841 C.3     1  UNL1        0.0191
     23 C          62.3343   82.1825   12.9043 C.3     1  UNL1        0.0722
@<TRIPOS>BOND
     1     1     2    2
     2     2     3    1
     3     3     4   ar
     4     4     5   ar
     5     5     6    1
     6     5     7   ar
     7     7     8   ar
     8     8     9   ar
     9     9    10   ar
    10    10    11   ar
    11    11    12   ar
    12    11    13    1
    13    13    14    1
    14    14    15    1
    15    16    15    1
    16    16    17    1
    17    17    18    1
    18    18    19    1
    19    19    20    1
    20    20    21    1
    21    21    22    1
    22    22    23    1
    23    15     2   am
    24    21    16    1
    25    12     3   ar
    26    23    18    1
    27    12     8   ar
@<TRIPOS>MOLECULE
*****
 23 27 0 0 0
SMALL
GASTEIGER

@<TRIPOS>ATOM
      1 O          62.9779   90.2809   12.2938 O.2     1  UNL1       -0.2699
      2 C          63.2482   88.8693   12.7234 C.2     1  UNL1        0.2506
      3 C          62.7436   87.8001   11.8003 C.ar    1  UNL1        0.0731
      4 C          62.0458   88.3470   10.5903 C.ar    1  UNL1        0.0357
      5 C          61.4799   87.4110    9.5639 C.ar    1  UNL1        0.1404
      6 F          60.7821   87.9579    8.3538 F       1  UNL1       -0.2042
      7 C          61.6117   85.9281    9.7474 C.ar    1  UNL1        0.0327
      8 C          62.3095   85.3812   10.9573 C.ar    1  UNL1        0.0405
      9 C          62.5902   83.9775   11.4052 C.ar    1  UNL1        0.1216
     10 N          63.3295   84.0459   12.7086 N.ar    1  UNL1       -0.1677
     11 N          63.5058   85.4920   13.0661 N.ar    1  UNL1       -0.2490
     12 C          62.8754   86.3173   11.9838 C.ar    1  UNL1        0.0839
     13 C          64.1857   86.0307   14.2801 C.3     1  UNL1        0.1489
     14 C          64.4047   87.4504   14.7121 C.3     1  UNL1        0.1200
     15 N          63.9875   88.7137   14.0192 N.am    1  UNL1       -0.2742
     16 C          64.7391   91.2661   15.4253 C.3     1  UNL1        0.0917
     17 C          64.7613   91.2518   15.3988 C.3     1  UNL1        0.0921
     18 N          63.8565   91.8304   16.4726 N.3     1  UNL1       -0.2713
     19 C          65.1316   92.5316   16.1085 C.3     1  UNL1        0.0722
     20 C          66.0253   91.9602   15.0480 C.3     1  UNL1        0.0191
     21 C          65.6439   90.6875   14.3515 C.3     1  UNL1        0.0224
     22 C          65.1220   90.9622   14.9262 C.3     1  UNL1        0.0191
     23 C          64.3140   91.4789   15.8851 C.3     1  UNL1        0.0722
@<TRIPOS>BOND
     1     1     2    2
     2     2     3    1
     3     3     4   ar
     4     4     5   ar
     5     5     6    1
     6     5     7   ar
     7     7     8   ar
     8     8     9   ar
     9     9    10   ar
    10    10    11   ar
    11    11    12   ar
    12    11    13    1
    13    13    14    1
    14    14    15    1
    15    16    15    1
    16    16    17    1
    17    17    18    1
    18    18    19    1
    19    19    20    1
    20    20    21    1
    21    21    22    1
    22    22    23    1
    23    15     2   am
    24    21    16    1
    25    12     3   ar
    26    23    18    1
    27    12     8   ar
@<TRIPOS>MOLECULE
*****
 23 27 0 0 0
SMALL
GASTEIGER

@<TRIPOS>ATOM
      1 O          64.6144   88.3561   14.4877 O.2     1  UNL1       -0.2699
      2 C          63.8830   88.8930   13.2931 C.2     1  UNL1        0.2506
      3 C          63.1403   87.8788   12.4748 C.ar    1  UNL1        0.0731
      4 C          63.2658   86.4831   13.0099 C.ar    1  UNL1        0.0357
      5 C          62.5826   85.3468   12.3087 C.ar    1  UNL1        0.1404
      6 F          62.7082   83.9510   12.8439 F       1  UNL1       -0.2042
      7 C          61.7738   85.6060   11.0723 C.ar    1  UNL1        0.0327
      8 C          61.6482   87.0016   10.5372 C.ar    1  UNL1        0.0405
      9 C          60.9240   87.5591    9.3478 C.ar    1  UNL1        0.1216
     10 N          61.1597   89.0401    9.3139 N.ar    1  UNL1       -0.1677
     11 N          62.0295   89.3979   10.4824 N.ar    1  UNL1       -0.2490
     12 C          62.3315   88.1380   11.2384 C.ar    1  UNL1        0.0839
     13 C          62.5170   90.7612   10.8428 C.3     1  UNL1        0.1489
     14 C          63.3833   91.2045   11.9844 C.3     1  UNL1        0.1200
     15 N          63.9912   90.3731   13.0749 N.am    1  UNL1       -0.2742
     16 C          65.6437   91.8866   15.0836 C.3     1  UNL1        0.0917
     17 C          65.6590   91.8747   15.0516 C.3     1  UNL1        0.0921
     18 N          65.0356   92.3560   16.3502 N.3     1  UNL1       -0.2713
     19 C          66.4815   92.6344   16.0640 C.3     1  UNL1        0.0722
     20 C          67.0973   92.1591   14.7815 C.3     1  UNL1        0.0191
     21 C          66.2672   91.4053   13.7851 C.3     1  UNL1        0.0224
     22 C          65.8855   91.6457   14.4740 C.3     1  UNL1        0.0191
     23 C          65.3288   92.0755   15.6336 C.3     1  UNL1        0.0722
@<TRIPOS>BOND
     1     1     2    2
     2     2     3    1
     3     3     4   ar
     4     4     5   ar
     5     5     6    1
     6     5     7   ar
     7     7     8   ar
     8     8     9   ar
     9     9    10   ar
    10    10    11   ar
    11    11    12   ar
    12    11    13    1
    13    13    14    1
    14    14    15    1
    15    16    15    1
    16    16    17    1
    17    17    18    1
    18    18    19    1
    19    19    20    1
    20    20    21    1
    21    21    22    1
    22    22    23    1
    23    15     2   am
    24    21    16    1
    25    12     3   ar
    26    23    18    1
    27    12     8   ar
@<TRIPOS>MOLECULE
*****
 23 27 0 0 0
SMALL
GASTEIGER

@<TRIPOS>ATOM
      1 O          62.2664   85.7851   11.3279 O.2     1  UNL1       -0.2699
      2 C          62.4798   87.2688   11.3858 C.2     1  UNL1        0.2506
      3 C          63.2234   87.7729   12.5871 C.ar    1  UNL1        0.0731
      4 C          63.6270   86.6802   13.5320 C.ar    1  UNL1        0.0357
      5 C          64.3797   87.0131   14.7860 C.ar    1  UNL1        0.1404
      6 F          64.7833   85.9202   15.7310 F       1  UNL1       -0.2042
      7 C          64.7287   88.4388   15.0951 C.ar    1  UNL1        0.0327
      8 C          64.3251   89.5315   14.1502 C.ar    1  UNL1        0.0405
      9 C          64.5277   91.0173   14.1886 C.ar    1  UNL1        0.1216
     10 N          63.9003   91.6026   12.9583 N.ar    1  UNL1       -0.1677
     11 N          63.3098   90.4786   12.1595 N.ar    1  UNL1       -0.2490
     12 C          63.5724   89.1986   12.8961 C.ar    1  UNL1        0.0839
     13 C          62.5862   90.5963   10.8600 C.3     1  UNL1        0.1489
     14 C          61.9688   89.5329   10.0008 C.3     1  UNL1        0.1200
     15 N          61.9215   88.0520   10.2348 N.am    1  UNL1       -0.2742
     16 C          60.5182   86.4527    8.1065 C.3     1  UNL1        0.0917
     17 C          60.4993   86.4777    8.1270 C.3     1  UNL1        0.0921
     18 N          61.2682   85.4635    7.2984 N.3     1  UNL1       -0.2713
     19 C          59.8024   85.6718    7.0577 C.3     1  UNL1        0.0722
     20 C          59.0429   86.6735    7.8760 C.3     1  UNL1        0.0191
     21 C          59.7493   87.4669    8.9351 C.3     1  UNL1        0.0224
     22 C          60.2077   86.9294    8.5120 C.3     1  UNL1        0.0191
     23 C          60.8943   86.0237    7.7720 C.3     1  UNL1        0.0722
@<TRIPOS>BOND
     1     1     2    2
     2     2     3    1
     3     3     4   ar
     4     4     5   ar
     5     5     6    1
     6     5     7   ar
     7     7     8   ar
     8     8     9   ar
     9     9    10   ar
    10    10    11   ar
    11    11    12   ar
    12    11    13    1
    13    13    14    1
    14    14    15    1
    15    16    15    1
    16    16    17    1
    17    17    18    1
    18    18    19    1
    19    19    20    1
    20    20    21    1
    21    21    22    1
    22    22    23    1
    23    15     2   am
    24    21    16    1
    25    12     3   ar
    26    23    18    1
    27    12     8   ar
@<TRIPOS>MOLECULE
*****
 23 27 0 0 0
SMALL
GASTEIGER

@<TRIPOS>ATOM
      1 O          63.1271   91.1459    9.7476 O.2     1  UNL1       -0.2699
      2 C          63.6721   90.9587   11.1325 C.2     1  UNL1        0.2506
      3 C          64.6210   92.0189   11.6074 C.ar    1  UNL1        0.0731
      4 C          64.8579   93.0962   10.5909 C.ar    1  UNL1        0.0357
      5 C          65.7823   94.2346   10.9061 C.ar    1  UNL1        0.1404
      6 F          66.0192   95.3119    9.8896 F       1  UNL1       -0.2042
      7 C          66.4699   94.2958   12.2379 C.ar    1  UNL1        0.0327
      8 C          66.2330   93.2185   13.2544 C.ar    1  UNL1        0.0405
      9 C          66.7661   93.0123   14.6412 C.ar    1  UNL1        0.1216
     10 N          66.1711   91.7465   15.1830 N.ar    1  UNL1       -0.1677
     11 N          65.2703   91.1703   14.1311 N.ar    1  UNL1       -0.2490
     12 C          65.3085   92.0800   12.9391 C.ar    1  UNL1        0.0839
     13 C          64.4706   89.9150   14.2363 C.3     1  UNL1        0.1489
     14 C          63.5515   89.2714   13.2407 C.3     1  UNL1        0.1200
     15 N          63.1961   89.7359   11.8595 N.am    1  UNL1       -0.2742
     16 C          61.2734   87.9728   10.3591 C.3     1  UNL1        0.0917
     17 C          61.3007   87.9577   10.3797 C.3     1  UNL1        0.0921
     18 N          60.1911   88.5710    9.5437 N.3     1  UNL1       -0.2713
     19 C          60.3325   87.0799    9.6244 C.3     1  UNL1        0.0722
     20 C          61.4284   86.4741   10.4501 C.3     1  UNL1        0.0191
     21 C          62.3830   87.3594   11.1952 C.3     1  UNL1        0.0224
     22 C          61.7983   87.7376   10.7556 C.3     1  UNL1        0.0191
     23 C          60.8074   88.2853   10.0090 C.3     1  UNL1        0.0722
@<TRIPOS>BOND
     1     1     2    2
     2     2     3    1
     3     3     4   ar
     4     4     5   ar
     5     5     6    1
     6     5     7   ar
     7     7     8   ar
     8     8     9   ar
     9     9    10   ar
    10    10    11   ar
    11    11    12   ar
    12    11    13    1
    13    13    14    1
    14    14    15    1
    15    16    15    1
    16    16    17    1
    17    17    18    1
    18    18    19    1
    19    19    20    1
    20    20    21    1
    21    21    22    1
    22    22    23    1
    23    15     2   am
    24    21    16    1
    25    12     3   ar
    26    23    18    1
    27    12     8   ar
@<TRIPOS>MOLECULE
*****
 23 27 0 0 0
SMALL
GASTEIGER

@<TRIPOS>ATOM
      1 O          61.8043   88.9741   10.3782 O.2     1  UNL1       -0.2699
      2 C          62.2482   87.8176   11.2240 C.2     1  UNL1        0.2506
      3 C          63.0855   88.1681   12.4181 C.ar    1  UNL1        0.0731
      4 C          63.3323   89.6415   12.5531 C.ar    1  UNL1        0.0357
      5 C          64.1528   90.1630   13.6953 C.ar    1  UNL1        0.1404
      6 F          64.3996   91.6364   13.8303 F       1  UNL1       -0.2042
      7 C          64.7267   89.2110   14.7026 C.ar    1  UNL1        0.0327
      8 C          64.4800   87.7377   14.5676 C.ar    1  UNL1        0.0405
      9 C          64.9132   86.5671   15.3995 C.ar    1  UNL1        0.1216
     10 N          64.3603   85.3222   14.7714 N.ar    1  UNL1       -0.1677
     11 N          63.5854   85.7233   13.5513 N.ar    1  UNL1       -0.2490
     12 C          63.6594   87.2162   13.4253 C.ar    1  UNL1        0.0839
     13 C          62.8630   84.8109   12.6176 C.3     1  UNL1        0.1489
     14 C          62.0698   85.1253   11.3839 C.3     1  UNL1        0.1200
     15 N          61.7962   86.4634   10.7636 N.am    1  UNL1       -0.2742
     16 C          60.1175   86.4101    8.2665 C.3     1  UNL1        0.0917
     17 C          60.1516   86.3947    8.2667 C.3     1  UNL1        0.0921
     18 N          58.7679   87.0207    8.2599 N.3     1  UNL1       -0.2713
     19 C          59.3037   86.3719    7.0181 C.3     1  UNL1        0.0722
     20 C          60.6702   85.7536    7.0248 C.3     1  UNL1        0.0191
     21 C          61.5011   85.7841    8.2734 C.3     1  UNL1        0.0224
     22 C          60.7581   86.1361    8.3181 C.3     1  UNL1        0.0191
     23 C          59.5224   86.6951    8.3120 C.3     1  UNL1        0.0722
@<TRIPOS>BOND
     1     1     2    2
     2     2     3    1
     3     3     4   ar
     4     4     5   ar
     5     5     6    1
     6     5     7   ar
     7     7     8   ar
     8     8     9   ar
     9     9    10   ar
    10    10    11   ar
    11    11    12   ar
    12    11    13    1
    13    13    14    1
    14    14    15    1
    15    16    15    1
    16    16    17    1
    17    17    18    1
    18    18    19    1
    19    19    20    1
    20    20    21    1
    21    21    22    1
    22    22    23    1
    23    15     2   am
    24    21    16    1
    25    12     3   ar
    26    23    18    1
    27    12     8   ar
@<TRIPOS>MOLECULE
*****
 23 27 0 0 0
SMALL
GASTEIGER

@<TRIPOS>ATOM
      1 O          61.6772   89.0408   12.7030 O.2     1  UNL1       -0.2699
      2 C          62.6892   90.0456   12.2378 C.2     1  UNL1        0.2506
      3 C          63.5276   90.6705   13.3131 C.ar    1  UNL1        0.0731
      4 C          63.1958   90.1675   14.6867 C.ar    1  UNL1        0.0357
      5 C          63.9423   90.6908   15.8777 C.ar    1  UNL1        0.1404
      6 F          63.6104   90.1878   17.2514 F       1  UNL1       -0.2042
      7 C          65.0209   91.7172   15.6953 C.ar    1  UNL1        0.0327
      8 C          65.3528   92.2203   14.3217 C.ar    1  UNL1        0.0405
      9 C          66.3580   93.2218   13.8353 C.ar    1  UNL1        0.1216
     10 N          66.2326   93.3174   12.3437 N.ar    1  UNL1       -0.1677
     11 N          65.1499   92.3750   11.9081 N.ar    1  UNL1       -0.2490
     12 C          64.6062   91.6969   13.1306 C.ar    1  UNL1        0.0839
     13 C          64.6843   92.1417   10.5099 C.3     1  UNL1        0.1489
     14 C          63.6167   91.2253    9.9898 C.3     1  UNL1        0.1200
     15 N          62.7288   90.2924   10.7588 N.am    1  UNL1       -0.2742
     16 C          60.7731   88.7135    9.1038 C.3     1  UNL1        0.0917
     17 C          60.8013   88.6963    9.1213 C.3     1  UNL1        0.0921
     18 N          59.6569   89.3976    8.4108 N.3     1  UNL1       -0.2713
     19 C          59.8164   87.9111    8.2895 C.3     1  UNL1        0.0722
     20 C          60.9467   87.2183    8.9912 C.3     1  UNL1        0.0191
     21 C          61.9175   88.0121    9.8144 C.3     1  UNL1        0.0224
     22 C          61.3140   88.4360    9.4482 C.3     1  UNL1        0.0191
     23 C          60.2920   89.0624    8.8137 C.3     1  UNL1        0.0722
@<TRIPOS>BOND
     1     1     2    2
     2     2     3    1
     3     3     4   ar
     4     4     5   ar
     5     5     6    1
     6     5     7   ar
     7     7     8   ar
     8     8     9   ar
     9     9    10   ar
    10    10    11   ar
    11    11    12   ar
    12    11    13    1
    13    13    14    1
    14    14    15    1
    15    16    15    1
    16    16    17    1
    17    17    18    1
    18    18    19    1
    19    19    20    1
    20    20    21    1
    21    21    22    1
    22    22    23    1
    23    15     2   am
    24    21    16    1
    25    12     3   ar
    26    23    18    1
    27    12     8   ar
@<TRIPOS>MOLECULE
*****
 23 27 0 0 0
SMALL
GASTEIGER

@<TRIPOS>ATOM
      1 O          64.0764   89.1451   13.8532 O.2     1  UNL1       -0.2699
      2 C          64.2377   90.2431   12.8440 C.2     1  UNL1        0.2506
      3 C          65.0539   91.4206   13.2882 C.ar    1  UNL1        0.0731
      4 C          65.5715   91.2843   14.6894 C.ar    1  UNL1        0.0357
      5 C          66.4074   92.3756   15.2896 C.ar    1  UNL1        0.1404
      6 F          66.9250   92.2393   16.6909 F       1  UNL1       -0.2042
      7 C          66.7258   93.6033   14.4886 C.ar    1  UNL1        0.0327
      8 C          66.2081   93.7395   13.0874 C.ar    1  UNL1        0.0405
      9 C          66.3570   94.8257   12.0636 C.ar    1  UNL1        0.1216
     10 N          65.6131   94.4057   10.8307 N.ar    1  UNL1       -0.1677
     11 N          65.0045   93.0599   11.0924 N.ar    1  UNL1       -0.2490
     12 C          65.3722   92.6482   12.4872 C.ar    1  UNL1        0.0839
     13 C          64.1769   92.2592   10.1437 C.3     1  UNL1        0.1489
     14 C          63.5344   90.9155   10.3223 C.3     1  UNL1        0.1200
     15 N          63.5614   90.0183   11.5241 N.am    1  UNL1       -0.2742
     16 C          62.0563   87.4283   11.2359 C.3     1  UNL1        0.0917
     17 C          62.0439   87.4594   11.2192 C.3     1  UNL1        0.0921
     18 N          62.5502   86.1990   11.8987 N.3     1  UNL1       -0.2713
     19 C          61.2945   86.1566   11.0792 C.3     1  UNL1        0.0722
     20 C          60.7944   87.4013   10.4081 C.3     1  UNL1        0.0191
     21 C          61.5501   88.6886   10.5564 C.3     1  UNL1        0.0224
     22 C          61.8632   88.0324   10.9429 C.3     1  UNL1        0.0191
     23 C          62.3153   86.9069   11.5497 C.3     1  UNL1        0.0722
@<TRIPOS>BOND
     1     1     2    2
     2     2     3    1
     3     3     4   ar
     4     4     5   ar
     5     5     6    1
     6     5     7   ar
     7     7     8   ar
     8     8     9   ar
     9     9    10   ar
    10    10    11   ar
    11    11    12   ar
    12    11    13    1
    13    13    14    1
    14    14    15    1
    15    16    15    1
    16    16    17    1
    17    17    18    1
    18    18    19    1
    19    19    20    1
    20    20    21    1
    21    21    22    1
    22    22    23    1
    23    15     2   am
    24    21    16    1
    25    12     3   ar
    26    23    18    1
    27    12     8   ar
