@<TRIPOS>MOLECULE
*****
 29 32 0 0 0
SMALL
GASTEIGER

@<TRIPOS>ATOM
      1 C          65.1950   92.1490   14.3018 C.ar    1  UNL1        0.0991
      2 S          66.1654   92.9660   13.5012 S.2     1  UNL1       -0.0473
      3 C          65.9663   92.6336   12.0521 C.ar    1  UNL1        0.1630
      4 N          64.8728   91.6112   11.9571 N.ar    1  UNL1       -0.2278
      5 C          64.3962   91.3117   13.3475 C.ar    1  UNL1        0.0805
      6 N          66.7271   93.2206   10.9003 N.pl3   1  UNL1       -0.2830
      7 C          67.6547   92.3582   10.0968 C.3     1  UNL1        0.1247
      8 C          68.4155   92.9451    8.9450 C.3     1  UNL1        0.1636
      9 O          68.2486   94.3946    8.5967 O.3     1  UNL1       -0.3501
     10 C          67.3210   95.2570    9.4003 C.3     1  UNL1        0.1636
     11 C          66.5602   94.6700   10.5521 C.3     1  UNL1        0.1247
     12 N          66.1645   92.6879   16.6512 N.am    1  UNL1       -0.3249
     13 C          65.0491   92.1663   15.7946 C.2     1  UNL1        0.2500
     14 O          63.7877   91.6620   16.4308 O.2     1  UNL1       -0.2698
     15 H          66.0687   92.6992   17.6310 H       1  UNL1        0.1453
     16 H          66.9924   93.0188   16.2337 H       1  UNL1        0.1453
     17 C          63.3111   90.3447   13.7183 C.3     1  UNL1        0.1319
     18 C          63.0292   89.1612   12.8410 C.2     1  UNL1        0.2354
     19 O          63.7304   87.8589   13.0901 O.2     1  UNL1       -0.2741
     20 N          62.0459   89.2801   11.7144 N.am    1  UNL1       -0.2583
     21 C          61.2722   90.5110   11.3457 C.3     1  UNL1        0.1029
     22 C          60.4119   90.1805   10.1622 C.3     1  UNL1        0.0496
     23 C          60.6539   88.7454    9.7994 C.ar    1  UNL1       -0.0045
     24 C          60.0852   87.8733    8.7196 C.ar    1  UNL1        0.0267
     25 C          60.5264   86.4448    8.5990 C.ar    1  UNL1        0.1399
     26 F          59.9577   85.5727    7.5192 F       1  UNL1       -0.2042
     27 C          61.5363   85.8882    9.5584 C.ar    1  UNL1        0.0309
     28 C          62.1051   86.7602   10.6383 C.ar    1  UNL1        0.0169
     29 C          61.6638   88.1888   10.7588 C.ar    1  UNL1        0.0500
@<TRIPOS>BOND
     1    12    13   am
     2    13    14    2
     3    13     1    1
     4     1     2   ar
     5     2     3   ar
     6     3     6    1
     7     6     7    1
     8     7     8    1
     9     8     9    1
    10     9    10    1
    11    10    11    1
    12     3     4   ar
    13     4     5   ar
    14     5    17    1
    15    17    18    1
    16    18    19    2
    17    18    20   am
    18    20    21    1
    19    21    22    1
    20    22    23    1
    21    23    24   ar
    22    24    25   ar
    23    25    26    1
    24    25    27   ar
    25    27    28   ar
    26    28    29   ar
    27     5     1   ar
    28    29    20    1
    29    11     6    1
    30    29    23   ar
    31    12    15    1
    32    12    16    1
@<TRIPOS>MOLECULE
*****
 29 32 0 0 0
SMALL
GASTEIGER

@<TRIPOS>ATOM
      1 C          60.8399   87.5260    9.7230 C.ar    1  UNL1        0.0991
      2 S          61.2749   86.0921    9.7918 S.2     1  UNL1       -0.0473
      3 C          62.2302   85.9520   10.9397 C.ar    1  UNL1        0.1630
      4 N          62.3857   87.2994   11.5804 N.ar    1  UNL1       -0.2278
      5 C          61.5265   88.2721   10.8284 C.ar    1  UNL1        0.0805
      6 N          62.9106   84.6867   11.3712 N.pl3   1  UNL1       -0.2830
      7 C          63.5363   83.7854   10.3486 C.3     1  UNL1        0.1247
      8 C          64.2167   82.5201   10.7801 C.3     1  UNL1        0.1636
      9 O          64.2713   82.1562   12.2343 O.3     1  UNL1       -0.3501
     10 C          63.6455   83.0577   13.2569 C.3     1  UNL1        0.1636
     11 C          62.9651   84.3229   12.8254 C.3     1  UNL1        0.1247
     12 N          60.0973   89.5051    8.2125 N.am    1  UNL1       -0.3249
     13 C          59.8860   88.1110    8.7242 C.2     1  UNL1        0.2500
     14 O          58.7206   87.3019    8.2370 O.2     1  UNL1       -0.2698
     15 H          59.4712   89.8890    7.5569 H       1  UNL1        0.1453
     16 H          60.8622   90.0361    8.5322 H       1  UNL1        0.1453
     17 C          61.3796   89.7343   11.1291 C.3     1  UNL1        0.1319
     18 C          62.5989   90.5912   11.2990 C.2     1  UNL1        0.2354
     19 O          63.1070   91.4092   10.1489 O.2     1  UNL1       -0.2741
     20 N          63.3102   90.6302   12.6191 N.am    1  UNL1       -0.2583
     21 C          62.9214   89.8708   13.8528 C.3     1  UNL1        0.1029
     22 C          63.9061   90.2067   14.9334 C.3     1  UNL1        0.0496
     23 C          64.9034   91.1737   14.3676 C.ar    1  UNL1       -0.0045
     24 C          66.0993   91.8497   14.9699 C.ar    1  UNL1        0.0267
     25 C          66.9269   92.7875   14.1418 C.ar    1  UNL1        0.1399
     26 F          68.1228   93.4635   14.7442 F       1  UNL1       -0.2042
     27 C          66.5587   93.0493   12.7115 C.ar    1  UNL1        0.0309
     28 C          65.3627   92.3732   12.1091 C.ar    1  UNL1        0.0169
     29 C          64.5351   91.4354   12.9372 C.ar    1  UNL1        0.0500
@<TRIPOS>BOND
     1    12    13   am
     2    13    14    2
     3    13     1    1
     4     1     2   ar
     5     2     3   ar
     6     3     6    1
     7     6     7    1
     8     7     8    1
     9     8     9    1
    10     9    10    1
    11    10    11    1
    12     3     4   ar
    13     4     5   ar
    14     5    17    1
    15    17    18    1
    16    18    19    2
    17    18    20   am
    18    20    21    1
    19    21    22    1
    20    22    23    1
    21    23    24   ar
    22    24    25   ar
    23    25    26    1
    24    25    27   ar
    25    27    28   ar
    26    28    29   ar
    27     5     1   ar
    28    29    20    1
    29    11     6    1
    30    29    23   ar
    31    12    15    1
    32    12    16    1
@<TRIPOS>MOLECULE
*****
 29 32 0 0 0
SMALL
GASTEIGER

@<TRIPOS>ATOM
      1 C          61.1248   87.5569   10.0830 C.ar    1  UNL1        0.0991
      2 S          61.4368   86.0898   10.0983 S.2     1  UNL1       -0.0473
      3 C          62.3510   85.8223   11.2571 C.ar    1  UNL1        0.1630
      4 N          62.6040   87.1241   11.9580 N.ar    1  UNL1       -0.2278
      5 C          61.8462   88.1961   11.2324 C.ar    1  UNL1        0.0805
      6 N          62.9133   84.4873   11.6465 N.pl3   1  UNL1       -0.2830
      7 C          62.8417   84.0308   13.0735 C.3     1  UNL1        0.1247
      8 C          63.4041   82.6959   13.4630 C.3     1  UNL1        0.1636
      9 O          64.0381   81.8174   12.4253 O.3     1  UNL1       -0.3501
     10 C          64.1096   82.2741   10.9983 C.3     1  UNL1        0.1636
     11 C          63.5473   83.6090   10.6090 C.3     1  UNL1        0.1247
     12 N          60.4470   89.7218    8.8166 N.am    1  UNL1       -0.3249
     13 C          60.2458   88.2612    9.0924 C.2     1  UNL1        0.2500
     14 O          59.1657   87.5047    8.3774 O.2     1  UNL1       -0.2698
     15 H          59.8701   90.1840    8.1664 H       1  UNL1        0.1453
     16 H          61.1559   90.2182    9.2858 H       1  UNL1        0.1453
     17 C          61.8153   89.6518   11.5929 C.3     1  UNL1        0.1319
     18 C          62.6956   90.1716   12.6905 C.2     1  UNL1        0.2354
     19 O          62.4632   89.7377   14.1074 O.2     1  UNL1       -0.2741
     20 N          63.8086   91.1253   12.3711 N.am    1  UNL1       -0.2583
     21 C          64.1601   91.6457   11.0090 C.3     1  UNL1        0.1029
     22 C          65.3341   92.5680   11.1540 C.3     1  UNL1        0.0496
     23 C          65.7082   92.6176   12.6057 C.ar    1  UNL1       -0.0045
     24 C          66.7855   93.3595   13.3398 C.ar    1  UNL1        0.0267
     25 C          66.9200   93.2096   14.8263 C.ar    1  UNL1        0.1399
     26 F          67.9974   93.9515   15.5604 F       1  UNL1       -0.2042
     27 C          65.9772   92.3180   15.5786 C.ar    1  UNL1        0.0309
     28 C          64.8998   91.5761   14.8444 C.ar    1  UNL1        0.0169
     29 C          64.7653   91.7259   13.3580 C.ar    1  UNL1        0.0500
@<TRIPOS>BOND
     1    12    13   am
     2    13    14    2
     3    13     1    1
     4     1     2   ar
     5     2     3   ar
     6     3     6    1
     7     6     7    1
     8     7     8    1
     9     8     9    1
    10     9    10    1
    11    10    11    1
    12     3     4   ar
    13     4     5   ar
    14     5    17    1
    15    17    18    1
    16    18    19    2
    17    18    20   am
    18    20    21    1
    19    21    22    1
    20    22    23    1
    21    23    24   ar
    22    24    25   ar
    23    25    26    1
    24    25    27   ar
    25    27    28   ar
    26    28    29   ar
    27     5     1   ar
    28    29    20    1
    29    11     6    1
    30    29    23   ar
    31    12    15    1
    32    12    16    1
@<TRIPOS>MOLECULE
*****
 29 32 0 0 0
SMALL
GASTEIGER

@<TRIPOS>ATOM
      1 C          63.2380   86.4983   16.0592 C.ar    1  UNL1        0.0991
      2 S          62.9088   85.1181   15.5728 S.2     1  UNL1       -0.0473
      3 C          63.4596   84.9720   14.1852 C.ar    1  UNL1        0.1630
      4 N          64.1292   86.2619   13.8141 N.ar    1  UNL1       -0.2278
      5 C          63.9922   87.2052   14.9723 C.ar    1  UNL1        0.0805
      6 N          63.3586   83.7504   13.3207 N.pl3   1  UNL1       -0.2830
      7 C          62.6235   82.5401   13.8154 C.3     1  UNL1        0.1247
      8 C          62.5225   81.3185   12.9508 C.3     1  UNL1        0.1636
      9 O          63.1566   81.3072   11.5914 O.3     1  UNL1       -0.3501
     10 C          63.8918   82.5175   11.0968 C.3     1  UNL1        0.1636
     11 C          63.9927   83.7391   11.9614 C.3     1  UNL1        0.1247
     12 N          63.0376   88.5404   17.6529 N.am    1  UNL1       -0.3249
     13 C          62.8763   87.0711   17.3975 C.2     1  UNL1        0.2500
     14 O          62.3534   86.1746   18.4805 O.2     1  UNL1       -0.2698
     15 H          62.8002   88.9163   18.5313 H       1  UNL1        0.1453
     16 H          63.3808   89.1288   16.9421 H       1  UNL1        0.1453
     17 C          64.5173   88.6090   15.0328 C.3     1  UNL1        0.1319
     18 C          64.4302   89.4951   13.8257 C.2     1  UNL1        0.2354
     19 O          63.5904   89.0842   12.6527 O.2     1  UNL1       -0.2741
     20 N          65.1829   90.7921   13.7915 N.am    1  UNL1       -0.2583
     21 C          66.0582   91.3325   14.8831 C.3     1  UNL1        0.1029
     22 C          66.6087   92.6508   14.4259 C.3     1  UNL1        0.0496
     23 C          66.0736   92.9253   13.0518 C.ar    1  UNL1       -0.0045
     24 C          66.2749   94.0727   12.1069 C.ar    1  UNL1        0.0267
     25 C          65.5950   94.0714   10.7699 C.ar    1  UNL1        0.1399
     26 F          65.7962   95.2188    9.8250 F       1  UNL1       -0.2042
     27 C          64.7137   92.9226   10.3777 C.ar    1  UNL1        0.0309
     28 C          64.5124   91.7751   11.3226 C.ar    1  UNL1        0.0169
     29 C          65.1924   91.7764   12.6597 C.ar    1  UNL1        0.0500
@<TRIPOS>BOND
     1    12    13   am
     2    13    14    2
     3    13     1    1
     4     1     2   ar
     5     2     3   ar
     6     3     6    1
     7     6     7    1
     8     7     8    1
     9     8     9    1
    10     9    10    1
    11    10    11    1
    12     3     4   ar
    13     4     5   ar
    14     5    17    1
    15    17    18    1
    16    18    19    2
    17    18    20   am
    18    20    21    1
    19    21    22    1
    20    22    23    1
    21    23    24   ar
    22    24    25   ar
    23    25    26    1
    24    25    27   ar
    25    27    28   ar
    26    28    29   ar
    27     5     1   ar
    28    29    20    1
    29    11     6    1
    30    29    23   ar
    31    12    15    1
    32    12    16    1
@<TRIPOS>MOLECULE
*****
 29 32 0 0 0
SMALL
GASTEIGER

@<TRIPOS>ATOM
      1 C          61.3883   86.1850    9.7821 C.ar    1  UNL1        0.0991
      2 S          61.9280   84.8569   10.2237 S.2     1  UNL1       -0.0473
      3 C          62.2939   84.9644   11.6744 C.ar    1  UNL1        0.1630
      4 N          61.9803   86.3589   12.1294 N.ar    1  UNL1       -0.2278
      5 C          61.4207   87.1133   10.9599 C.ar    1  UNL1        0.0805
      6 N          62.8718   83.8696   12.5214 N.pl3   1  UNL1       -0.2830
      7 C          63.5192   84.1990   13.8337 C.3     1  UNL1        0.1247
      8 C          64.0971   83.1042   14.6807 C.3     1  UNL1        0.1636
      9 O          64.0276   81.6798   14.2152 O.3     1  UNL1       -0.3501
     10 C          63.3802   81.3505   12.9029 C.3     1  UNL1        0.1636
     11 C          62.8023   82.4453   12.0560 C.3     1  UNL1        0.1247
     12 N          61.2213   85.6203    7.2517 N.am    1  UNL1       -0.3249
     13 C          60.9017   86.5251    8.4046 C.2     1  UNL1        0.2500
     14 O          60.0956   87.7700    8.1800 O.2     1  UNL1       -0.2698
     15 H          60.9020   85.8435    6.3475 H       1  UNL1        0.1453
     16 H          61.7504   84.8033    7.3991 H       1  UNL1        0.1453
     17 C          60.9722   88.5446   10.9670 C.3     1  UNL1        0.1319
     18 C          61.9606   89.6416   10.7033 C.2     1  UNL1        0.2354
     19 O          62.0794   90.2297    9.3286 O.2     1  UNL1       -0.2741
     20 N          62.8302   90.1506   11.8145 N.am    1  UNL1       -0.2583
     21 C          62.8242   89.6627   13.2329 C.3     1  UNL1        0.1029
     22 C          63.8489   90.4474   13.9973 C.3     1  UNL1        0.0496
     23 C          64.4881   91.4203   13.0514 C.ar    1  UNL1       -0.0045
     24 C          65.5622   92.4495   13.2442 C.ar    1  UNL1        0.0267
     25 C          66.0066   93.2953   12.0879 C.ar    1  UNL1        0.1399
     26 F          67.0806   94.3246   12.2806 F       1  UNL1       -0.2042
     27 C          65.3771   93.1119   10.7388 C.ar    1  UNL1        0.0309
     28 C          64.3030   92.0826   10.5460 C.ar    1  UNL1        0.0169
     29 C          63.8585   91.2368   11.7023 C.ar    1  UNL1        0.0500
@<TRIPOS>BOND
     1    12    13   am
     2    13    14    2
     3    13     1    1
     4     1     2   ar
     5     2     3   ar
     6     3     6    1
     7     6     7    1
     8     7     8    1
     9     8     9    1
    10     9    10    1
    11    10    11    1
    12     3     4   ar
    13     4     5   ar
    14     5    17    1
    15    17    18    1
    16    18    19    2
    17    18    20   am
    18    20    21    1
    19    21    22    1
    20    22    23    1
    21    23    24   ar
    22    24    25   ar
    23    25    26    1
    24    25    27   ar
    25    27    28   ar
    26    28    29   ar
    27     5     1   ar
    28    29    20    1
    29    11     6    1
    30    29    23   ar
    31    12    15    1
    32    12    16    1
@<TRIPOS>MOLECULE
*****
 29 32 0 0 0
SMALL
GASTEIGER

@<TRIPOS>ATOM
      1 C          61.4108   87.7963   11.0532 C.ar    1  UNL1        0.0991
      2 S          61.4341   86.3290   10.7426 S.2     1  UNL1       -0.0473
      3 C          62.5050   85.6948   11.5798 C.ar    1  UNL1        0.1630
      4 N          63.1436   86.7702   12.4079 N.ar    1  UNL1       -0.2278
      5 C          62.4674   88.0689   12.0825 C.ar    1  UNL1        0.0805
      6 N          62.8727   84.2406   11.5876 N.pl3   1  UNL1       -0.2830
      7 C          63.5197   83.6242   10.3830 C.3     1  UNL1        0.1247
      8 C          63.8874   82.1700   10.3907 C.3     1  UNL1        0.1636
      9 O          63.6080   81.3322   11.6033 O.3     1  UNL1       -0.3501
     10 C          62.9610   81.9487   12.8079 C.3     1  UNL1        0.1636
     11 C          62.5933   83.4029   12.8001 C.3     1  UNL1        0.1247
     12 N          60.5470   89.0820    8.9674 N.am    1  UNL1       -0.3249
     13 C          60.4923   88.8125   10.4419 C.2     1  UNL1        0.2500
     14 O          59.5191   89.5592   11.3053 O.2     1  UNL1       -0.2698
     15 H          59.9441   89.7489    8.5662 H       1  UNL1        0.1453
     16 H          61.1857   88.5919    8.4008 H       1  UNL1        0.1453
     17 C          62.7909   89.4057   12.6812 C.3     1  UNL1        0.1319
     18 C          63.4148   90.4754   11.8347 C.2     1  UNL1        0.2354
     19 O          63.0786   90.5689   10.3759 O.2     1  UNL1       -0.2741
     20 N          64.3750   91.4516   12.4472 N.am    1  UNL1       -0.2583
     21 C          64.8050   91.4821   13.8838 C.3     1  UNL1        0.1029
     22 C          65.7695   92.6181   14.0550 C.3     1  UNL1        0.0496
     23 C          65.9357   93.2897   12.7241 C.ar    1  UNL1       -0.0045
     24 C          66.7603   94.4645   12.2886 C.ar    1  UNL1        0.0267
     25 C          66.7232   94.9184   10.8594 C.ar    1  UNL1        0.1399
     26 F          67.5478   96.0933   10.4239 F       1  UNL1       -0.2042
     27 C          65.8613   94.1975    9.8657 C.ar    1  UNL1        0.0309
     28 C          65.0366   93.0226   10.3012 C.ar    1  UNL1        0.0169
     29 C          65.0737   92.5687   11.7304 C.ar    1  UNL1        0.0500
@<TRIPOS>BOND
     1    12    13   am
     2    13    14    2
     3    13     1    1
     4     1     2   ar
     5     2     3   ar
     6     3     6    1
     7     6     7    1
     8     7     8    1
     9     8     9    1
    10     9    10    1
    11    10    11    1
    12     3     4   ar
    13     4     5   ar
    14     5    17    1
    15    17    18    1
    16    18    19    2
    17    18    20   am
    18    20    21    1
    19    21    22    1
    20    22    23    1
    21    23    24   ar
    22    24    25   ar
    23    25    26    1
    24    25    27   ar
    25    27    28   ar
    26    28    29   ar
    27     5     1   ar
    28    29    20    1
    29    11     6    1
    30    29    23   ar
    31    12    15    1
    32    12    16    1
