@<TRIPOS>MOLECULE
*****
 25 28 0 0 0
SMALL
GASTEIGER

@<TRIPOS>ATOM
      1 C          65.3889   92.7629   11.9796 C.3     1  UNL1        0.0826
      2 C          65.8998   92.2270   13.2840 C.3     1  UNL1        0.0309
      3 C          65.4091   90.9051   13.7955 C.3     1  UNL1        0.0954
      4 N          64.4074   90.1191   13.0025 N.am    1  UNL1       -0.2642
      5 C          63.9166   88.7971   13.5141 C.2     1  UNL1        0.3039
      6 O          62.9149   88.0111   12.7211 O.2     1  UNL1       -0.2526
      7 N          64.4275   88.2612   14.8186 N.am    1  UNL1       -0.2901
      8 C          63.8964   90.6550   11.6981 C.3     1  UNL1        0.0954
      9 C          64.3872   91.9769   11.1866 C.3     1  UNL1        0.0309
     10 H          65.0850   88.7771   15.3390 H       1  UNL1        0.1509
     11 C          67.2766   96.5282    8.7952 C.3     1  UNL1        0.0773
     12 C          66.7473   95.8156   10.0043 C.ar    1  UNL1        0.1809
     13 N          66.5223   96.4228   11.3574 N.ar    1  UNL1       -0.0606
     14 O          65.9860   95.3531   12.2620 O.2     1  UNL1       -0.3374
     15 C          65.8796   94.0849   11.4680 C.ar    1  UNL1        0.2359
     16 N          66.3502   94.3708   10.0727 N.ar    1  UNL1       -0.1949
     17 C          63.9368   86.9393   15.3301 C.3     1  UNL1        0.0774
     18 C          63.5489   86.0528   16.4762 C.3     1  UNL1        0.0259
     19 C          63.4747   85.5361   15.0700 C.3     1  UNL1        0.0420
     20 C          63.1650   84.4278   14.1080 C.ar    1  UNL1       -0.0208
     21 C          63.3727   84.6320   12.6365 C.ar    1  UNL1       -0.0042
     22 C          63.0630   83.5236   11.6744 C.ar    1  UNL1       -0.0003
     23 C          62.5457   82.2110   12.1838 C.ar    1  UNL1       -0.0000
     24 C          62.3380   82.0068   13.6553 C.ar    1  UNL1       -0.0003
     25 C          62.6477   83.1152   14.6173 C.ar    1  UNL1       -0.0042
@<TRIPOS>BOND
     1    11    12    1
     2    12    13   ar
     3    13    14   ar
     4    14    15   ar
     5    15     1    1
     6     1     2    1
     7     2     3    1
     8     3     4    1
     9     4     5   am
    10     5     6    2
    11     5     7   am
    12     7    17    1
    13    17    18    1
    14    18    19    1
    15    19    20    1
    16    20    21   ar
    17    21    22   ar
    18    22    23   ar
    19    23    24   ar
    20    24    25   ar
    21     4     8    1
    22     8     9    1
    23    15    16   ar
    24    16    12   ar
    25     9     1    1
    26    19    17    1
    27    25    20   ar
    28     7    10    1
@<TRIPOS>MOLECULE
*****
 25 28 0 0 0
SMALL
GASTEIGER

@<TRIPOS>ATOM
      1 C          63.0587   83.4253   12.4000 C.3     1  UNL1        0.0826
      2 C          63.8064   83.9075   13.6077 C.3     1  UNL1        0.0309
      3 C          63.9570   85.3786   13.8586 C.3     1  UNL1        0.0954
      4 N          63.3600   86.3676   12.9018 N.am    1  UNL1       -0.2642
      5 C          63.5106   87.8388   13.1528 C.2     1  UNL1        0.3039
      6 O          62.9135   88.8279   12.1961 O.2     1  UNL1       -0.2526
      7 N          64.2583   88.3210   14.3604 N.am    1  UNL1       -0.2901
      8 C          62.6123   85.8855   11.6942 C.3     1  UNL1        0.0954
      9 C          62.4616   84.4144   11.4433 C.3     1  UNL1        0.0309
     10 H          64.6502   87.6718   14.9884 H       1  UNL1        0.1509
     11 C          62.8889   78.7352    9.9803 C.3     1  UNL1        0.0773
     12 C          62.8300   79.7983   11.0369 C.ar    1  UNL1        0.1809
     13 N          62.5224   79.5821   12.4891 N.ar    1  UNL1       -0.0606
     14 O          62.5706   80.9145   13.1764 O.2     1  UNL1       -0.3374
     15 C          62.9080   81.9541   12.1491 C.ar    1  UNL1        0.2359
     16 N          63.0683   81.2643   10.8268 N.ar    1  UNL1       -0.1949
     17 C          64.4090   89.7922   14.6114 C.3     1  UNL1        0.0774
     18 C          64.3404   90.9645   15.5446 C.3     1  UNL1        0.0259
     19 C          64.7385   91.1680   14.1129 C.3     1  UNL1        0.0420
     20 C          65.1586   92.0798   12.9984 C.ar    1  UNL1       -0.0208
     21 C          64.6641   91.8363   11.6033 C.ar    1  UNL1       -0.0042
     22 C          65.0842   92.7480   10.4888 C.ar    1  UNL1       -0.0003
     23 C          65.9988   93.9034   10.7694 C.ar    1  UNL1       -0.0000
     24 C          66.4933   94.1470   12.1644 C.ar    1  UNL1       -0.0003
     25 C          66.0732   93.2351   13.2789 C.ar    1  UNL1       -0.0042
@<TRIPOS>BOND
     1    11    12    1
     2    12    13   ar
     3    13    14   ar
     4    14    15   ar
     5    15     1    1
     6     1     2    1
     7     2     3    1
     8     3     4    1
     9     4     5   am
    10     5     6    2
    11     5     7   am
    12     7    17    1
    13    17    18    1
    14    18    19    1
    15    19    20    1
    16    20    21   ar
    17    21    22   ar
    18    22    23   ar
    19    23    24   ar
    20    24    25   ar
    21     4     8    1
    22     8     9    1
    23    15    16   ar
    24    16    12   ar
    25     9     1    1
    26    19    17    1
    27    25    20   ar
    28     7    10    1
@<TRIPOS>MOLECULE
*****
 25 28 0 0 0
SMALL
GASTEIGER

@<TRIPOS>ATOM
      1 C          63.2588   85.0184   13.6571 C.3     1  UNL1        0.0826
      2 C          64.1297   85.6335   14.7121 C.3     1  UNL1        0.0309
      3 C          64.4845   87.0890   14.6369 C.3     1  UNL1        0.0954
      4 N          63.9684   87.9294   13.5067 N.am    1  UNL1       -0.2642
      5 C          64.3232   89.3849   13.4316 C.2     1  UNL1        0.3039
      6 O          63.8071   90.2253   12.3014 O.2     1  UNL1       -0.2526
      7 N          65.1941   90.0000   14.4866 N.am    1  UNL1       -0.2901
      8 C          63.0975   87.3143   12.4517 C.3     1  UNL1        0.0954
      9 C          62.7427   85.8588   12.5269 C.3     1  UNL1        0.0309
     10 H          65.5329   89.4484   15.2284 H       1  UNL1        0.1509
     11 C          62.5935   79.9391   12.3768 C.3     1  UNL1        0.0773
     12 C          62.5982   81.2282   13.1437 C.ar    1  UNL1        0.1809
     13 N          62.1177   81.4180   14.5520 N.ar    1  UNL1       -0.0606
     14 O          62.3067   82.8609   14.9157 O.2     1  UNL1       -0.3374
     15 C          62.9040   83.5629   13.7322 C.ar    1  UNL1        0.2359
     16 N          63.0841   82.5538   12.6371 N.ar    1  UNL1       -0.1949
     17 C          65.5490   91.4555   14.4115 C.3     1  UNL1        0.0774
     18 C          65.7272   92.7854   15.0820 C.3     1  UNL1        0.0259
     19 C          65.9853   92.6466   13.6109 C.3     1  UNL1        0.0420
     20 C          66.3862   93.2541   12.2994 C.ar    1  UNL1       -0.0208
     21 C          66.1890   94.7219   12.0612 C.ar    1  UNL1       -0.0042
     22 C          66.5900   95.3294   10.7496 C.ar    1  UNL1       -0.0003
     23 C          67.1882   94.4691    9.6762 C.ar    1  UNL1       -0.0000
     24 C          67.3854   93.0013    9.9144 C.ar    1  UNL1       -0.0003
     25 C          66.9844   92.3938   11.2261 C.ar    1  UNL1       -0.0042
@<TRIPOS>BOND
     1    11    12    1
     2    12    13   ar
     3    13    14   ar
     4    14    15   ar
     5    15     1    1
     6     1     2    1
     7     2     3    1
     8     3     4    1
     9     4     5   am
    10     5     6    2
    11     5     7   am
    12     7    17    1
    13    17    18    1
    14    18    19    1
    15    19    20    1
    16    20    21   ar
    17    21    22   ar
    18    22    23   ar
    19    23    24   ar
    20    24    25   ar
    21     4     8    1
    22     8     9    1
    23    15    16   ar
    24    16    12   ar
    25     9     1    1
    26    19    17    1
    27    25    20   ar
    28     7    10    1
@<TRIPOS>MOLECULE
*****
 25 28 0 0 0
SMALL
GASTEIGER

@<TRIPOS>ATOM
      1 C          59.7978   88.9846    7.5169 C.3     1  UNL1        0.0826
      2 C          60.5110   89.5435    8.7123 C.3     1  UNL1        0.0309
      3 C          61.1372   88.6176    9.7125 C.3     1  UNL1        0.0954
      4 N          61.0503   87.1329    9.5173 N.am    1  UNL1       -0.2642
      5 C          61.6766   86.2070   10.5176 C.2     1  UNL1        0.3039
      6 O          61.5897   84.7223   10.3224 O.2     1  UNL1       -0.2526
      7 N          62.3897   86.7658   11.7131 N.am    1  UNL1       -0.2901
      8 C          60.3371   86.5740    8.3219 C.3     1  UNL1        0.0954
      9 C          59.7109   87.4999    7.3217 C.3     1  UNL1        0.0309
     10 H          62.4468   87.7402   11.8412 H       1  UNL1        0.1509
     11 C          59.1831   92.5118    3.6358 C.3     1  UNL1        0.0773
     12 C          58.8890   91.5318    4.7327 C.ar    1  UNL1        0.1809
     13 N          57.5265   91.1388    5.2220 N.ar    1  UNL1       -0.0606
     14 O          57.7012   90.1368    6.3245 O.2     1  UNL1       -0.3374
     15 C          59.1715   89.9105    6.5166 C.ar    1  UNL1        0.2359
     16 N          59.9056   90.7726    5.5328 N.ar    1  UNL1       -0.1949
     17 C          63.0160   85.8399   12.7134 C.3     1  UNL1        0.0774
     18 C          63.9314   85.6151   13.8802 C.3     1  UNL1        0.0259
     19 C          63.1854   84.4610   13.2790 C.3     1  UNL1        0.0420
     20 C          62.8526   82.9986   13.2585 C.ar    1  UNL1       -0.0208
     21 C          63.3383   82.1346   12.1326 C.ar    1  UNL1       -0.0042
     22 C          63.0054   80.6721   12.1121 C.ar    1  UNL1       -0.0003
     23 C          62.1868   80.0736   13.2174 C.ar    1  UNL1       -0.0000
     24 C          61.7011   80.9376   14.3433 C.ar    1  UNL1       -0.0003
     25 C          62.0340   82.4001   14.3638 C.ar    1  UNL1       -0.0042
@<TRIPOS>BOND
     1    11    12    1
     2    12    13   ar
     3    13    14   ar
     4    14    15   ar
     5    15     1    1
     6     1     2    1
     7     2     3    1
     8     3     4    1
     9     4     5   am
    10     5     6    2
    11     5     7   am
    12     7    17    1
    13    17    18    1
    14    18    19    1
    15    19    20    1
    16    20    21   ar
    17    21    22   ar
    18    22    23   ar
    19    23    24   ar
    20    24    25   ar
    21     4     8    1
    22     8     9    1
    23    15    16   ar
    24    16    12   ar
    25     9     1    1
    26    19    17    1
    27    25    20   ar
    28     7    10    1
@<TRIPOS>MOLECULE
*****
 25 28 0 0 0
SMALL
GASTEIGER

@<TRIPOS>ATOM
      1 C          65.6796   91.8765   13.9420 C.3     1  UNL1        0.0826
      2 C          64.8873   90.6928   14.4121 C.3     1  UNL1        0.0309
      3 C          63.9011   90.0370   13.4918 C.3     1  UNL1        0.0954
      4 N          63.7071   90.5650   12.1012 N.am    1  UNL1       -0.2642
      5 C          62.7207   89.9091   11.1808 C.2     1  UNL1        0.3039
      6 O          62.5267   90.4370    9.7902 O.2     1  UNL1       -0.2526
      7 N          61.9285   88.7254   11.6510 N.am    1  UNL1       -0.2901
      8 C          64.4993   91.7487   11.6310 C.3     1  UNL1        0.0954
      9 C          65.4856   92.4044   12.5514 C.3     1  UNL1        0.0309
     10 H          62.0558   88.3789   12.5636 H       1  UNL1        0.1509
     11 C          70.0455   94.1992   15.7928 C.3     1  UNL1        0.0773
     12 C          68.6727   93.6000   15.7131 C.ar    1  UNL1        0.1809
     13 N          67.6946   93.4832   16.8444 N.ar    1  UNL1       -0.0606
     14 O          66.4544   92.8234   16.3186 O.2     1  UNL1       -0.3374
     15 C          66.6659   92.5324   14.8624 C.ar    1  UNL1        0.2359
     16 N          68.0369   93.0123   14.4882 N.ar    1  UNL1       -0.1949
     17 C          60.9421   88.0695   10.7305 C.3     1  UNL1        0.0774
     18 C          59.5260   87.8503   10.2872 C.3     1  UNL1        0.0259
     19 C          60.6499   87.1529    9.5798 C.3     1  UNL1        0.0420
     20 C          61.1300   86.2210    8.5069 C.ar    1  UNL1       -0.0208
     21 C          62.5466   85.7279    8.5206 C.ar    1  UNL1       -0.0042
     22 C          63.0267   84.7960    7.4478 C.ar    1  UNL1       -0.0003
     23 C          62.0903   84.3572    6.3612 C.ar    1  UNL1       -0.0000
     24 C          60.6737   84.8504    6.3475 C.ar    1  UNL1       -0.0003
     25 C          60.1936   85.7823    7.4204 C.ar    1  UNL1       -0.0042
@<TRIPOS>BOND
     1    11    12    1
     2    12    13   ar
     3    13    14   ar
     4    14    15   ar
     5    15     1    1
     6     1     2    1
     7     2     3    1
     8     3     4    1
     9     4     5   am
    10     5     6    2
    11     5     7   am
    12     7    17    1
    13    17    18    1
    14    18    19    1
    15    19    20    1
    16    20    21   ar
    17    21    22   ar
    18    22    23   ar
    19    23    24   ar
    20    24    25   ar
    21     4     8    1
    22     8     9    1
    23    15    16   ar
    24    16    12   ar
    25     9     1    1
    26    19    17    1
    27    25    20   ar
    28     7    10    1
@<TRIPOS>MOLECULE
*****
 25 28 0 0 0
SMALL
GASTEIGER

@<TRIPOS>ATOM
      1 C          63.1176   83.5793   12.2807 C.3     1  UNL1        0.0826
      2 C          63.8044   84.0094   13.5429 C.3     1  UNL1        0.0309
      3 C          63.9239   85.4679   13.8722 C.3     1  UNL1        0.0954
      4 N          63.3565   86.4963   12.9392 N.am    1  UNL1       -0.2642
      5 C          63.4760   87.9549   13.2684 C.2     1  UNL1        0.3039
      6 O          62.9087   88.9833   12.3354 O.2     1  UNL1       -0.2526
      7 N          64.1628   88.3850   14.5307 N.am    1  UNL1       -0.2901
      8 C          62.6698   86.0662   11.6769 C.3     1  UNL1        0.0954
      9 C          62.5503   84.6077   11.3477 C.3     1  UNL1        0.0309
     10 H          64.5352   87.7100   15.1430 H       1  UNL1        0.1509
     11 C          62.9495   79.0339    9.5989 C.3     1  UNL1        0.0773
     12 C          62.9209   80.0315   10.7188 C.ar    1  UNL1        0.1809
     13 N          62.7077   79.7211   12.1708 N.ar    1  UNL1       -0.0606
     14 O          62.7555   81.0124   12.9326 O.2     1  UNL1       -0.3374
     15 C          62.9982   82.1208   11.9514 C.ar    1  UNL1        0.2359
     16 N          63.1004   81.5145   10.5832 N.ar    1  UNL1       -0.1949
     17 C          64.2823   89.8436   14.8600 C.3     1  UNL1        0.0774
     18 C          63.6428   91.1462   15.2396 C.3     1  UNL1        0.0259
     19 C          65.1287   91.0672   15.0507 C.3     1  UNL1        0.0420
     20 C          66.4753   91.7280   15.0516 C.ar    1  UNL1       -0.0208
     21 C          66.8692   92.6260   16.1867 C.ar    1  UNL1       -0.0042
     22 C          68.2158   93.2868   16.1877 C.ar    1  UNL1       -0.0003
     23 C          69.1685   93.0496   15.0536 C.ar    1  UNL1       -0.0000
     24 C          68.7745   92.1516   13.9185 C.ar    1  UNL1       -0.0003
     25 C          67.4279   91.4908   13.9175 C.ar    1  UNL1       -0.0042
@<TRIPOS>BOND
     1    11    12    1
     2    12    13   ar
     3    13    14   ar
     4    14    15   ar
     5    15     1    1
     6     1     2    1
     7     2     3    1
     8     3     4    1
     9     4     5   am
    10     5     6    2
    11     5     7   am
    12     7    17    1
    13    17    18    1
    14    18    19    1
    15    19    20    1
    16    20    21   ar
    17    21    22   ar
    18    22    23   ar
    19    23    24   ar
    20    24    25   ar
    21     4     8    1
    22     8     9    1
    23    15    16   ar
    24    16    12   ar
    25     9     1    1
    26    19    17    1
    27    25    20   ar
    28     7    10    1
@<TRIPOS>MOLECULE
*****
 25 28 0 0 0
SMALL
GASTEIGER

@<TRIPOS>ATOM
      1 C          63.1415   83.3034   12.8363 C.3     1  UNL1        0.0826
      2 C          62.7626   84.3060   11.7869 C.3     1  UNL1        0.0309
      3 C          63.0017   85.7675   12.0250 C.3     1  UNL1        0.0954
      4 N          63.6196   86.2265   13.3125 N.am    1  UNL1       -0.2642
      5 C          63.8587   87.6881   13.5505 C.2     1  UNL1        0.3039
      6 O          64.4766   88.1471   14.8380 O.2     1  UNL1       -0.2526
      7 N          63.4798   88.6907   12.5011 N.am    1  UNL1       -0.2901
      8 C          63.9985   85.2239   14.3618 C.3     1  UNL1        0.0954
      9 C          63.7594   83.7624   14.1238 C.3     1  UNL1        0.0309
     10 H          63.0743   88.3895   11.6561 H       1  UNL1        0.1509
     11 C          62.7247   78.6038   10.4653 C.3     1  UNL1        0.0773
     12 C          62.7109   79.6817   11.5085 C.ar    1  UNL1        0.1809
     13 N          62.3583   79.5037   12.9556 N.ar    1  UNL1       -0.0606
     14 O          62.4767   80.8387   13.6291 O.2     1  UNL1       -0.3374
     15 C          62.9024   81.8418   12.5983 C.ar    1  UNL1        0.2359
     16 N          63.0472   81.1267   11.2877 N.ar    1  UNL1       -0.1949
     17 C          63.7189   90.1523   12.7392 C.3     1  UNL1        0.0774
     18 C          63.3108   91.5832   12.5492 C.3     1  UNL1        0.0259
     19 C          64.5410   91.2530   13.3414 C.3     1  UNL1        0.0420
     20 C          65.7259   91.6978   14.1465 C.ar    1  UNL1       -0.0208
     21 C          67.0933   91.7003   13.5299 C.ar    1  UNL1       -0.0042
     22 C          68.2782   92.1451   14.3350 C.ar    1  UNL1       -0.0003
     23 C          68.0956   92.5874   15.7567 C.ar    1  UNL1       -0.0000
     24 C          66.7282   92.5849   16.3732 C.ar    1  UNL1       -0.0003
     25 C          65.5433   92.1401   15.5681 C.ar    1  UNL1       -0.0042
@<TRIPOS>BOND
     1    11    12    1
     2    12    13   ar
     3    13    14   ar
     4    14    15   ar
     5    15     1    1
     6     1     2    1
     7     2     3    1
     8     3     4    1
     9     4     5   am
    10     5     6    2
    11     5     7   am
    12     7    17    1
    13    17    18    1
    14    18    19    1
    15    19    20    1
    16    20    21   ar
    17    21    22   ar
    18    22    23   ar
    19    23    24   ar
    20    24    25   ar
    21     4     8    1
    22     8     9    1
    23    15    16   ar
    24    16    12   ar
    25     9     1    1
    26    19    17    1
    27    25    20   ar
    28     7    10    1
@<TRIPOS>MOLECULE
*****
 25 28 0 0 0
SMALL
GASTEIGER

@<TRIPOS>ATOM
      1 C          62.3045   86.6283   11.5379 C.3     1  UNL1        0.0826
      2 C          62.3571   88.0977   11.2413 C.3     1  UNL1        0.0309
      3 C          61.6285   88.6492   10.0518 C.3     1  UNL1        0.0954
      4 N          60.8473   87.7314    9.1589 N.am    1  UNL1       -0.2642
      5 C          60.1187   88.2830    7.9694 C.2     1  UNL1        0.3039
      6 O          59.3374   87.3651    7.0765 O.2     1  UNL1       -0.2526
      7 N          60.1713   89.7524    7.6728 N.am    1  UNL1       -0.2901
      8 C          60.7946   86.2620    9.4555 C.3     1  UNL1        0.0954
      9 C          61.5232   85.7104   10.6450 C.3     1  UNL1        0.0309
     10 H          60.6841   90.3548    8.2588 H       1  UNL1        0.1509
     11 C          64.1820   83.2897   15.1724 C.3     1  UNL1        0.0773
     12 C          63.8961   84.5421   14.3980 C.ar    1  UNL1        0.1809
     13 N          64.4125   85.9137   14.7177 N.ar    1  UNL1       -0.0606
     14 O          63.8791   86.8621   13.6852 O.2     1  UNL1       -0.3374
     15 C          63.0331   86.0767   12.7274 C.ar    1  UNL1        0.2359
     16 N          63.0436   84.6429   13.1679 N.ar    1  UNL1       -0.1949
     17 C          59.4427   90.3040    6.4832 C.3     1  UNL1        0.0774
     18 C          58.1631   90.5312    5.7343 C.3     1  UNL1        0.0259
     19 C          59.4603   91.0322    5.1720 C.3     1  UNL1        0.0420
     20 C          60.2195   91.7419    4.0903 C.ar    1  UNL1       -0.0208
     21 C          59.5259   92.7542    3.2276 C.ar    1  UNL1       -0.0042
     22 C          60.2850   93.4638    2.1459 C.ar    1  UNL1       -0.0003
     23 C          61.7378   93.1612    1.9269 C.ar    1  UNL1       -0.0000
     24 C          62.4314   92.1490    2.7896 C.ar    1  UNL1       -0.0003
     25 C          61.6722   91.4393    3.8713 C.ar    1  UNL1       -0.0042
@<TRIPOS>BOND
     1    11    12    1
     2    12    13   ar
     3    13    14   ar
     4    14    15   ar
     5    15     1    1
     6     1     2    1
     7     2     3    1
     8     3     4    1
     9     4     5   am
    10     5     6    2
    11     5     7   am
    12     7    17    1
    13    17    18    1
    14    18    19    1
    15    19    20    1
    16    20    21   ar
    17    21    22   ar
    18    22    23   ar
    19    23    24   ar
    20    24    25   ar
    21     4     8    1
    22     8     9    1
    23    15    16   ar
    24    16    12   ar
    25     9     1    1
    26    19    17    1
    27    25    20   ar
    28     7    10    1
@<TRIPOS>MOLECULE
*****
 25 28 0 0 0
SMALL
GASTEIGER

@<TRIPOS>ATOM
      1 C          62.1361   85.8256   11.1518 C.3     1  UNL1        0.0826
      2 C          61.8769   85.5720    9.6964 C.3     1  UNL1        0.0309
      3 C          61.2495   86.6391    8.8493 C.3     1  UNL1        0.0954
      4 N          60.8813   87.9598    9.4577 N.am    1  UNL1       -0.2642
      5 C          60.2539   89.0270    8.6105 C.2     1  UNL1        0.3039
      6 O          59.8857   90.3477    9.2189 O.2     1  UNL1       -0.2526
      7 N          59.9947   88.7733    7.1550 N.am    1  UNL1       -0.2901
      8 C          61.1406   88.2135   10.9131 C.3     1  UNL1        0.0954
      9 C          61.7680   87.1464   11.7602 C.3     1  UNL1        0.0309
     10 H          60.2363   87.9065    6.7557 H       1  UNL1        0.1509
     11 C          63.4074   81.1132   13.1663 C.3     1  UNL1        0.0773
     12 C          63.3479   82.5925   12.9249 C.ar    1  UNL1        0.1809
     13 N          64.1102   83.6404   13.6804 N.ar    1  UNL1       -0.0606
     14 O          63.7491   84.9791   13.1081 O.2     1  UNL1       -0.3374
     15 C          62.7636   84.7585   11.9990 C.ar    1  UNL1        0.2359
     16 N          62.5156   83.2835   11.8858 N.ar    1  UNL1       -0.1949
     17 C          59.3672   89.8405    6.3079 C.3     1  UNL1        0.0774
     18 C          58.1664   90.6497    5.9163 C.3     1  UNL1        0.0259
     19 C          59.4813   90.8796    5.2321 C.3     1  UNL1        0.0420
     20 C          60.3063   91.6122    4.2159 C.ar    1  UNL1       -0.0208
     21 C          61.7421   91.2344    4.0021 C.ar    1  UNL1       -0.0042
     22 C          62.5671   91.9670    2.9860 C.ar    1  UNL1       -0.0003
     23 C          61.9563   93.0775    2.1836 C.ar    1  UNL1       -0.0000
     24 C          60.5205   93.4553    2.3974 C.ar    1  UNL1       -0.0003
     25 C          59.6955   92.7226    3.4136 C.ar    1  UNL1       -0.0042
@<TRIPOS>BOND
     1    11    12    1
     2    12    13   ar
     3    13    14   ar
     4    14    15   ar
     5    15     1    1
     6     1     2    1
     7     2     3    1
     8     3     4    1
     9     4     5   am
    10     5     6    2
    11     5     7   am
    12     7    17    1
    13    17    18    1
    14    18    19    1
    15    19    20    1
    16    20    21   ar
    17    21    22   ar
    18    22    23   ar
    19    23    24   ar
    20    24    25   ar
    21     4     8    1
    22     8     9    1
    23    15    16   ar
    24    16    12   ar
    25     9     1    1
    26    19    17    1
    27    25    20   ar
    28     7    10    1
