@<TRIPOS>MOLECULE
*****
 30 34 0 0 0
SMALL
GASTEIGER

@<TRIPOS>ATOM
      1 N          63.6587   86.9165   15.4111 N.ar    1  UNL1       -0.2967
      2 C          63.4859   86.1978   14.1059 C.ar    1  UNL1        0.1480
      3 N          63.4601   87.2235   13.0117 N.ar    1  UNL1       -0.2223
      4 C          63.6168   88.5762   13.6408 C.ar    1  UNL1        0.1482
      5 C          63.6637   89.9563   13.0548 C.ar    1  UNL1        0.1511
      6 N          63.8333   91.1465   13.9517 N.ar    1  UNL1       -0.2076
      7 C          63.9560   90.9568   15.4345 C.ar    1  UNL1        0.2015
      8 N          63.9092   89.5768   16.0205 N.ar    1  UNL1       -0.2048
      9 C          63.7396   88.3865   15.1236 C.ar    1  UNL1        0.1672
     10 C          63.3609   84.7138   13.9264 C.ar    1  UNL1        0.0725
     11 C          64.3180   83.9833   13.0318 C.ar    1  UNL1        0.1048
     12 N          64.1930   82.4993   12.8523 N.ar    1  UNL1       -0.2290
     13 C          63.1109   81.7459   13.5674 C.ar    1  UNL1        0.1396
     14 C          62.9859   80.2619   13.3879 C.3     1  UNL1        0.0737
     15 N          62.1539   82.4764   14.4621 N.ar    1  UNL1       -0.2290
     16 C          62.2789   83.9603   14.6415 C.ar    1  UNL1        0.1048
     17 C          62.6819   86.5651   17.7928 C.3     1  UNL1        0.0266
     18 C          63.7368   86.2775   16.7659 C.3     1  UNL1        0.1090
     19 N          63.5410   90.1460   11.5719 N.pl3   1  UNL1       -0.3167
     20 H          64.2433   90.6270   11.0773 H       1  UNL1        0.1482
     21 C          62.3481   89.6028   10.8425 C.3     1  UNL1        0.0919
     22 C          60.9686   90.1918   10.8466 C.3     1  UNL1        0.0428
     23 C          60.0932   89.3282    9.9876 C.3     1  UNL1        0.0952
     24 N          60.9317   88.2054    9.4525 N.am    1  UNL1       -0.2778
     25 C          60.4595   87.1060    8.5480 C.2     1  UNL1        0.2252
     26 O          59.0287   87.0665    8.0993 O.2     1  UNL1       -0.2749
     27 C          62.3252   88.3751    9.9809 C.3     1  UNL1        0.1128
     28 C          61.4180   86.0462    8.0921 C.3     1  UNL1        0.0767
     29 C          62.6812   85.2628    8.2948 C.3     1  UNL1        0.0096
     30 C          61.8153   84.9937    7.0998 C.3     1  UNL1        0.0096
@<TRIPOS>BOND
     1    17    18    1
     2    18     1    1
     3     1     2   ar
     4     2    10    1
     5    10    11   ar
     6    11    12   ar
     7    12    13   ar
     8    13    14    1
     9    13    15   ar
    10    15    16   ar
    11     2     3   ar
    12     3     4   ar
    13     4     5   ar
    14     5    19    1
    15    21    19    1
    16    21    22    1
    17    22    23    1
    18    23    24    1
    19    24    25   am
    20    25    26    2
    21    25    28    1
    22    28    29    1
    23    29    30    1
    24    24    27    1
    25     5     6   ar
    26     6     7   ar
    27     7     8   ar
    28     8     9   ar
    29     9     1   ar
    30    16    10   ar
    31     9     4   ar
    32    27    21    1
    33    30    28    1
    34    19    20    1
@<TRIPOS>MOLECULE
*****
 30 34 0 0 0
SMALL
GASTEIGER

@<TRIPOS>ATOM
      1 N          61.3163   89.4465   10.9213 N.ar    1  UNL1       -0.2967
      2 C          62.6268   89.0806   11.5527 C.ar    1  UNL1        0.1480
      3 N          63.0461   87.7464   11.0104 N.ar    1  UNL1       -0.2223
      4 C          61.9946   87.2877   10.0438 C.ar    1  UNL1        0.1482
      5 C          61.8725   86.0491    9.2067 C.ar    1  UNL1        0.1511
      6 N          60.6815   85.8611    8.3146 N.ar    1  UNL1       -0.2076
      7 C          59.6124   86.9118    8.2595 C.ar    1  UNL1        0.2015
      8 N          59.7345   88.1505    9.0967 N.ar    1  UNL1       -0.2048
      9 C          60.9256   88.3385    9.9888 C.ar    1  UNL1        0.1672
     10 C          63.3850   89.9043   12.5511 C.ar    1  UNL1        0.0725
     11 C          63.9837   91.2168   12.1404 C.ar    1  UNL1        0.1048
     12 N          64.7418   92.0405   13.1388 N.ar    1  UNL1       -0.2290
     13 C          64.9012   91.5515   14.5479 C.ar    1  UNL1        0.1396
     14 C          65.6593   92.3753   15.5463 C.3     1  UNL1        0.0737
     15 N          64.3025   90.2390   14.9586 N.ar    1  UNL1       -0.2290
     16 C          63.5444   89.4154   13.9602 C.ar    1  UNL1        0.1048
     17 C          59.1375   90.6157   11.7187 C.3     1  UNL1        0.0266
     18 C          60.5338   90.7003   11.1775 C.3     1  UNL1        0.1090
     19 N          62.9416   84.9983    9.2618 N.pl3   1  UNL1       -0.3167
     20 H          63.5350   84.8587    8.4887 H       1  UNL1        0.1482
     21 C          63.1067   84.1602   10.4948 C.3     1  UNL1        0.0919
     22 C          63.0107   82.6649   10.5639 C.3     1  UNL1        0.0428
     23 C          63.2414   82.2507   11.9870 C.3     1  UNL1        0.0952
     24 N          63.4799   83.4902   12.7975 N.am    1  UNL1       -0.2778
     25 C          63.7537   83.5407   14.2715 C.2     1  UNL1        0.2252
     26 O          63.8074   82.2709   15.0682 O.2     1  UNL1       -0.2749
     27 C          63.3967   84.6702   11.8753 C.3     1  UNL1        0.1128
     28 C          63.9736   84.8609   14.9486 C.3     1  UNL1        0.0767
     29 C          64.6241   86.2122   14.9804 C.3     1  UNL1        0.0096
     30 C          63.7041   85.7964   16.0898 C.3     1  UNL1        0.0096
@<TRIPOS>BOND
     1    17    18    1
     2    18     1    1
     3     1     2   ar
     4     2    10    1
     5    10    11   ar
     6    11    12   ar
     7    12    13   ar
     8    13    14    1
     9    13    15   ar
    10    15    16   ar
    11     2     3   ar
    12     3     4   ar
    13     4     5   ar
    14     5    19    1
    15    21    19    1
    16    21    22    1
    17    22    23    1
    18    23    24    1
    19    24    25   am
    20    25    26    2
    21    25    28    1
    22    28    29    1
    23    29    30    1
    24    24    27    1
    25     5     6   ar
    26     6     7   ar
    27     7     8   ar
    28     8     9   ar
    29     9     1   ar
    30    16    10   ar
    31     9     4   ar
    32    27    21    1
    33    30    28    1
    34    19    20    1
@<TRIPOS>MOLECULE
*****
 30 34 0 0 0
SMALL
GASTEIGER

@<TRIPOS>ATOM
      1 N          62.1499   86.2400   10.4541 N.ar    1  UNL1       -0.2967
      2 C          62.5914   85.8811   11.8420 C.ar    1  UNL1        0.1480
      3 N          62.6267   87.1397   12.6572 N.ar    1  UNL1       -0.2223
      4 C          62.2070   88.2765   11.7730 C.ar    1  UNL1        0.1482
      5 C          62.0551   89.7462   12.0319 C.ar    1  UNL1        0.1511
      6 N          61.6086   90.6597   10.9293 N.ar    1  UNL1       -0.2076
      7 C          61.3139   90.1037    9.5677 C.ar    1  UNL1        0.2015
      8 N          61.4657   88.6340    9.3088 N.ar    1  UNL1       -0.2048
      9 C          61.9123   87.7204   10.4115 C.ar    1  UNL1        0.1672
     10 C          62.9369   84.5050   12.3291 C.ar    1  UNL1        0.0725
     11 C          62.4308   84.0313   13.6593 C.ar    1  UNL1        0.1048
     12 N          62.7763   82.6553   14.1464 N.ar    1  UNL1       -0.2290
     13 C          63.6280   81.7531   13.3033 C.ar    1  UNL1        0.1396
     14 C          63.9735   80.3771   13.7905 C.3     1  UNL1        0.0737
     15 N          64.1341   82.2269   11.9732 N.ar    1  UNL1       -0.2290
     16 C          63.7885   83.6028   11.4861 C.ar    1  UNL1        0.1048
     17 C          62.9846   85.2549    8.1996 C.3     1  UNL1        0.0266
     18 C          61.9763   85.2859    9.3097 C.3     1  UNL1        0.1090
     19 N          62.3499   90.3022   13.3936 N.pl3   1  UNL1       -0.3167
     20 H          61.6412   90.3342   14.0762 H       1  UNL1        0.1482
     21 C          63.7243   90.8096   13.7151 C.3     1  UNL1        0.0919
     22 C          64.3395   90.8842   15.0811 C.3     1  UNL1        0.0428
     23 C          65.7204   91.4522   14.9373 C.3     1  UNL1        0.0952
     24 N          65.9586   91.7286   13.4823 N.am    1  UNL1       -0.2778
     25 C          67.2106   92.3016   12.8872 C.2     1  UNL1        0.2252
     26 O          68.3693   92.6526   13.7728 O.2     1  UNL1       -0.2749
     27 C          64.7250   91.3315   12.7270 C.3     1  UNL1        0.1128
     28 C          67.3039   92.5235   11.4068 C.3     1  UNL1        0.0767
     29 C          66.8419   93.2315   10.1676 C.3     1  UNL1        0.0096
     30 C          67.9274   92.2000   10.0814 C.3     1  UNL1        0.0096
@<TRIPOS>BOND
     1    17    18    1
     2    18     1    1
     3     1     2   ar
     4     2    10    1
     5    10    11   ar
     6    11    12   ar
     7    12    13   ar
     8    13    14    1
     9    13    15   ar
    10    15    16   ar
    11     2     3   ar
    12     3     4   ar
    13     4     5   ar
    14     5    19    1
    15    21    19    1
    16    21    22    1
    17    22    23    1
    18    23    24    1
    19    24    25   am
    20    25    26    2
    21    25    28    1
    22    28    29    1
    23    29    30    1
    24    24    27    1
    25     5     6   ar
    26     6     7   ar
    27     7     8   ar
    28     8     9   ar
    29     9     1   ar
    30    16    10   ar
    31     9     4   ar
    32    27    21    1
    33    30    28    1
    34    19    20    1
@<TRIPOS>MOLECULE
*****
 30 34 0 0 0
SMALL
GASTEIGER

@<TRIPOS>ATOM
      1 N          62.2127   88.7031   10.8340 N.ar    1  UNL1       -0.2967
      2 C          62.4774   87.2459   10.5966 C.ar    1  UNL1        0.1480
      3 N          63.1679   86.6965   11.8096 N.ar    1  UNL1       -0.2223
      4 C          63.3300   87.8143   12.7967 C.ar    1  UNL1        0.1482
      5 C          63.9388   87.8631   14.1667 C.ar    1  UNL1        0.1511
      6 N          63.9574   89.1519   14.9338 N.ar    1  UNL1       -0.2076
      7 C          63.3671   90.3921   14.3308 C.ar    1  UNL1        0.2015
      8 N          62.7582   90.3433   12.9608 N.ar    1  UNL1       -0.2048
      9 C          62.7396   89.0544   12.1938 C.ar    1  UNL1        0.1672
     10 C          62.1151   86.4736    9.3627 C.ar    1  UNL1        0.0725
     11 C          60.7210   86.5474    8.8140 C.ar    1  UNL1        0.1048
     12 N          60.3588   85.7751    7.5802 N.ar    1  UNL1       -0.2290
     13 C          61.3907   84.9290    6.8951 C.ar    1  UNL1        0.1396
     14 C          61.0284   84.1567    5.6612 C.3     1  UNL1        0.0737
     15 N          62.7847   84.8552    7.4438 N.ar    1  UNL1       -0.2290
     16 C          63.1469   85.6275    8.6776 C.ar    1  UNL1        0.1048
     17 C          60.1903   90.2101   10.2103 C.3     1  UNL1        0.0266
     18 C          61.5393   89.6439    9.8794 C.3     1  UNL1        0.1090
     19 N          64.5292   86.6229   14.7696 N.pl3   1  UNL1       -0.3167
     20 H          65.4154   86.6571   15.1970 H       1  UNL1        0.1482
     21 C          63.7692   85.3305   14.7214 C.3     1  UNL1        0.0919
     22 C          62.9087   84.7723   15.8159 C.3     1  UNL1        0.0428
     23 C          62.3439   83.4663   15.3411 C.3     1  UNL1        0.0952
     24 N          62.8554   83.2174   13.9531 N.am    1  UNL1       -0.2778
     25 C          62.5412   82.0255   13.0982 C.2     1  UNL1        0.2252
     26 O          61.6389   80.9462   13.6188 O.2     1  UNL1       -0.2749
     27 C          63.7362   84.3695   13.5701 C.3     1  UNL1        0.1128
     28 C          63.1293   81.9131   11.7230 C.3     1  UNL1        0.0767
     29 C          63.9905   82.4709   10.6288 C.3     1  UNL1        0.0096
     30 C          63.2867   81.1604   10.4350 C.3     1  UNL1        0.0096
@<TRIPOS>BOND
     1    17    18    1
     2    18     1    1
     3     1     2   ar
     4     2    10    1
     5    10    11   ar
     6    11    12   ar
     7    12    13   ar
     8    13    14    1
     9    13    15   ar
    10    15    16   ar
    11     2     3   ar
    12     3     4   ar
    13     4     5   ar
    14     5    19    1
    15    21    19    1
    16    21    22    1
    17    22    23    1
    18    23    24    1
    19    24    25   am
    20    25    26    2
    21    25    28    1
    22    28    29    1
    23    29    30    1
    24    24    27    1
    25     5     6   ar
    26     6     7   ar
    27     7     8   ar
    28     8     9   ar
    29     9     1   ar
    30    16    10   ar
    31     9     4   ar
    32    27    21    1
    33    30    28    1
    34    19    20    1
@<TRIPOS>MOLECULE
*****
 30 34 0 0 0
SMALL
GASTEIGER

@<TRIPOS>ATOM
      1 N          62.7128   85.6478   11.2880 N.ar    1  UNL1       -0.2967
      2 C          62.1518   87.0288   11.1206 C.ar    1  UNL1        0.1480
      3 N          62.5637   87.8439   12.3106 N.ar    1  UNL1       -0.2223
      4 C          63.3794   86.9665   13.2134 C.ar    1  UNL1        0.1482
      5 C          64.0500   87.2282   14.5294 C.ar    1  UNL1        0.1511
      6 N          64.8129   86.1326   15.2133 N.ar    1  UNL1       -0.2076
      7 C          64.9050   84.7754   14.5813 C.ar    1  UNL1        0.2015
      8 N          64.2343   84.5138   13.2654 N.ar    1  UNL1       -0.2048
      9 C          63.4715   85.6093   12.5814 C.ar    1  UNL1        0.1672
     10 C          61.3241   87.5103    9.9659 C.ar    1  UNL1        0.0725
     11 C          61.1310   88.9810    9.7432 C.ar    1  UNL1        0.1048
     12 N          60.3034   89.4623    8.5886 N.ar    1  UNL1       -0.2290
     13 C          59.6688   88.4730    7.6567 C.ar    1  UNL1        0.1396
     14 C          58.8411   88.9544    6.5020 C.3     1  UNL1        0.0737
     15 N          59.8618   87.0023    7.8794 N.ar    1  UNL1       -0.2290
     16 C          60.6895   86.5209    9.0340 C.ar    1  UNL1        0.1048
     17 C          63.7402   83.7141    9.8896 C.3     1  UNL1        0.0266
     18 C          62.5447   84.5058   10.3302 C.3     1  UNL1        0.1090
     19 N          63.9579   88.5855   15.1613 N.pl3   1  UNL1       -0.3167
     20 H          63.5712   88.6842   16.0613 H       1  UNL1        0.1482
     21 C          64.4548   89.7923   14.4220 C.3     1  UNL1        0.0919
     22 C          63.8971   90.3313   13.1381 C.3     1  UNL1        0.0428
     23 C          64.6943   91.5442   12.7594 C.3     1  UNL1        0.0952
     24 N          65.7447   91.7548   13.8093 N.am    1  UNL1       -0.2778
     25 C          66.7642   92.8550   13.8283 C.2     1  UNL1        0.2252
     26 O          66.7908   93.8717   12.7258 O.2     1  UNL1       -0.2749
     27 C          65.5967   90.6721   14.8368 C.3     1  UNL1        0.1128
     28 C          67.7568   92.9383   14.9496 C.3     1  UNL1        0.0767
     29 C          68.5106   92.2828   16.0688 C.3     1  UNL1        0.0096
     30 C          68.7225   93.7381   15.7730 C.3     1  UNL1        0.0096
@<TRIPOS>BOND
     1    17    18    1
     2    18     1    1
     3     1     2   ar
     4     2    10    1
     5    10    11   ar
     6    11    12   ar
     7    12    13   ar
     8    13    14    1
     9    13    15   ar
    10    15    16   ar
    11     2     3   ar
    12     3     4   ar
    13     4     5   ar
    14     5    19    1
    15    21    19    1
    16    21    22    1
    17    22    23    1
    18    23    24    1
    19    24    25   am
    20    25    26    2
    21    25    28    1
    22    28    29    1
    23    29    30    1
    24    24    27    1
    25     5     6   ar
    26     6     7   ar
    27     7     8   ar
    28     8     9   ar
    29     9     1   ar
    30    16    10   ar
    31     9     4   ar
    32    27    21    1
    33    30    28    1
    34    19    20    1
@<TRIPOS>MOLECULE
*****
 30 34 0 0 0
SMALL
GASTEIGER

@<TRIPOS>ATOM
      1 N          64.2821   90.7953   12.6526 N.ar    1  UNL1       -0.2967
      2 C          65.1939   90.5575   13.8197 C.ar    1  UNL1        0.1480
      3 N          65.0027   89.1414   14.2761 N.ar    1  UNL1       -0.2223
      4 C          63.9728   88.5042   13.3910 C.ar    1  UNL1        0.1482
      5 C          63.3831   87.1252   13.3692 C.ar    1  UNL1        0.1511
      6 N          62.3479   86.7683   12.3440 N.ar    1  UNL1       -0.2076
      7 C          61.9026   87.7905   11.3406 C.ar    1  UNL1        0.2015
      8 N          62.4923   89.1695   11.3625 N.ar    1  UNL1       -0.2048
      9 C          63.5275   89.5263   12.3877 C.ar    1  UNL1        0.1672
     10 C          66.1320   91.5597   14.4242 C.ar    1  UNL1        0.0725
     11 C          65.7910   92.2137   15.7304 C.ar    1  UNL1        0.1048
     12 N          66.7291   93.2159   16.3348 N.ar    1  UNL1       -0.2290
     13 C          68.0083   93.5641   15.6332 C.ar    1  UNL1        0.1396
     14 C          68.9465   94.5664   16.2377 C.3     1  UNL1        0.0737
     15 N          68.3494   92.9102   14.3271 N.ar    1  UNL1       -0.2290
     16 C          67.4112   91.9080   13.7226 C.ar    1  UNL1        0.1048
     17 C          65.1017   92.3860   10.7690 C.3     1  UNL1        0.0266
     18 C          64.1484   92.0772   11.8851 C.3     1  UNL1        0.1090
     19 N          63.8285   86.1030   14.3726 N.pl3   1  UNL1       -0.3167
     20 H          64.5178   86.3330   15.0369 H       1  UNL1        0.1482
     21 C          63.2237   84.7303   14.3640 C.3     1  UNL1        0.0919
     22 C          62.4484   84.1013   15.4835 C.3     1  UNL1        0.0428
     23 C          62.0335   82.7280   15.0457 C.3     1  UNL1        0.0952
     24 N          62.5523   82.5081   13.6556 N.am    1  UNL1       -0.2778
     25 C          62.3679   81.2685   12.8314 C.2     1  UNL1        0.2252
     26 O          61.6044   80.1040   13.3890 O.2     1  UNL1       -0.2749
     27 C          63.2878   83.7457   13.2343 C.3     1  UNL1        0.1128
     28 C          62.9471   81.1934   11.4499 C.3     1  UNL1        0.0767
     29 C          63.8074   81.7768   10.3684 C.3     1  UNL1        0.0096
     30 C          63.0900   80.4798   10.1382 C.3     1  UNL1        0.0096
@<TRIPOS>BOND
     1    17    18    1
     2    18     1    1
     3     1     2   ar
     4     2    10    1
     5    10    11   ar
     6    11    12   ar
     7    12    13   ar
     8    13    14    1
     9    13    15   ar
    10    15    16   ar
    11     2     3   ar
    12     3     4   ar
    13     4     5   ar
    14     5    19    1
    15    21    19    1
    16    21    22    1
    17    22    23    1
    18    23    24    1
    19    24    25   am
    20    25    26    2
    21    25    28    1
    22    28    29    1
    23    29    30    1
    24    24    27    1
    25     5     6   ar
    26     6     7   ar
    27     7     8   ar
    28     8     9   ar
    29     9     1   ar
    30    16    10   ar
    31     9     4   ar
    32    27    21    1
    33    30    28    1
    34    19    20    1
@<TRIPOS>MOLECULE
*****
 30 34 0 0 0
SMALL
GASTEIGER

@<TRIPOS>ATOM
      1 N          64.2692   91.7045   11.6878 N.ar    1  UNL1       -0.2967
      2 C          64.8928   91.0292   12.8731 C.ar    1  UNL1        0.1480
      3 N          64.2718   89.6709   13.0126 N.ar    1  UNL1       -0.2223
      4 C          63.2644   89.5068   11.9133 C.ar    1  UNL1        0.1482
      5 C          62.3483   88.3753   11.5522 C.ar    1  UNL1        0.1511
      6 N          61.4306   88.5006   10.3724 N.ar    1  UNL1       -0.2076
      7 C          61.4290   89.7574    9.5536 C.ar    1  UNL1        0.2015
      8 N          62.3451   90.8889    9.9147 N.ar    1  UNL1       -0.2048
      9 C          63.2628   90.7636   11.0946 C.ar    1  UNL1        0.1672
     10 C          65.9516   91.6102   13.7628 C.ar    1  UNL1        0.0725
     11 C          67.3456   91.8018   13.2433 C.ar    1  UNL1        0.1048
     12 N          68.4043   92.3827   14.1330 N.ar    1  UNL1       -0.2290
     13 C          68.0690   92.7721   15.5422 C.ar    1  UNL1        0.1396
     14 C          69.1278   93.3531   16.4320 C.3     1  UNL1        0.0737
     15 N          66.6750   92.5805   16.0618 N.ar    1  UNL1       -0.2290
     16 C          65.6163   91.9995   15.1721 C.ar    1  UNL1        0.1048
     17 C          65.8474   93.3107   10.3918 C.3     1  UNL1        0.0266
     18 C          64.5949   93.0793   11.1840 C.3     1  UNL1        0.1090
     19 N          62.3499   87.1185   12.3711 N.pl3   1  UNL1       -0.3167
     20 H          62.1928   87.1632   13.3419 H       1  UNL1        0.1482
     21 C          62.5909   85.7934   11.7106 C.3     1  UNL1        0.0919
     22 C          62.9761   85.5801   10.2767 C.3     1  UNL1        0.0428
     23 C          63.1123   84.1039   10.0480 C.3     1  UNL1        0.0952
     24 N          62.8112   83.4048   11.3406 N.am    1  UNL1       -0.2778
     25 C          62.8291   81.9220   11.5661 C.2     1  UNL1        0.2252
     26 O          63.1718   80.9959   10.4369 O.2     1  UNL1       -0.2749
     27 C          62.4889   84.4491   12.3681 C.3     1  UNL1        0.1128
     28 C          62.5045   81.3654   12.9205 C.3     1  UNL1        0.0767
     29 C          62.7857   80.3916   14.0264 C.3     1  UNL1        0.0096
     30 C          61.6609   81.3749   14.1608 C.3     1  UNL1        0.0096
@<TRIPOS>BOND
     1    17    18    1
     2    18     1    1
     3     1     2   ar
     4     2    10    1
     5    10    11   ar
     6    11    12   ar
     7    12    13   ar
     8    13    14    1
     9    13    15   ar
    10    15    16   ar
    11     2     3   ar
    12     3     4   ar
    13     4     5   ar
    14     5    19    1
    15    21    19    1
    16    21    22    1
    17    22    23    1
    18    23    24    1
    19    24    25   am
    20    25    26    2
    21    25    28    1
    22    28    29    1
    23    29    30    1
    24    24    27    1
    25     5     6   ar
    26     6     7   ar
    27     7     8   ar
    28     8     9   ar
    29     9     1   ar
    30    16    10   ar
    31     9     4   ar
    32    27    21    1
    33    30    28    1
    34    19    20    1
@<TRIPOS>MOLECULE
*****
 30 34 0 0 0
SMALL
GASTEIGER

@<TRIPOS>ATOM
      1 N          63.3269   84.9422   12.0916 N.ar    1  UNL1       -0.2967
      2 C          62.7599   85.8975   11.0836 C.ar    1  UNL1        0.1480
      3 N          62.6293   87.2400   11.7396 N.ar    1  UNL1       -0.2223
      4 C          63.1156   87.1145   13.1531 C.ar    1  UNL1        0.1482
      5 C          63.2215   88.1100   14.2702 C.ar    1  UNL1        0.1511
      6 N          63.7585   87.6853   15.6048 N.ar    1  UNL1       -0.2076
      7 C          64.1896   86.2652   15.8223 C.ar    1  UNL1        0.2015
      8 N          64.0837   85.2697   14.7052 N.ar    1  UNL1       -0.2048
      9 C          63.5467   85.6944   13.3706 C.ar    1  UNL1        0.1672
     10 C          62.3887   85.5679    9.6681 C.ar    1  UNL1        0.0725
     11 C          63.3427   84.8002    8.8018 C.ar    1  UNL1        0.1048
     12 N          62.9715   84.4707    7.3864 N.ar    1  UNL1       -0.2290
     13 C          61.6462   84.9089    6.8372 C.ar    1  UNL1        0.1396
     14 C          61.2750   84.5793    5.4216 C.3     1  UNL1        0.0737
     15 N          60.6922   85.6766    7.7034 N.ar    1  UNL1       -0.2290
     16 C          61.0634   86.0061    9.1188 C.ar    1  UNL1        0.1048
     17 C          62.7232   82.4399   12.4437 C.3     1  UNL1        0.0266
     18 C          63.6222   83.4898   11.8611 C.3     1  UNL1        0.1090
     19 N          62.7903   89.5301   14.0526 N.pl3   1  UNL1       -0.3167
     20 H          61.9010   89.8262   14.3538 H       1  UNL1        0.1482
     21 C          63.7142   90.4991   13.3762 C.3     1  UNL1        0.0919
     22 C          63.6020   90.9828   11.9607 C.3     1  UNL1        0.0428
     23 C          64.7309   91.9372   11.7061 C.3     1  UNL1        0.0952
     24 N          65.5407   92.0433   12.9642 N.am    1  UNL1       -0.2778
     25 C          66.7642   92.8897   13.1565 C.2     1  UNL1        0.2252
     26 O          67.2787   93.7317   12.0267 O.2     1  UNL1       -0.2749
     27 C          64.9124   91.1546   13.9963 C.3     1  UNL1        0.1128
     28 C          67.4730   92.8939   14.4783 C.3     1  UNL1        0.0767
     29 C          68.0647   92.1481   15.6375 C.3     1  UNL1        0.0096
     30 C          68.1092   93.6472   15.6089 C.3     1  UNL1        0.0096
@<TRIPOS>BOND
     1    17    18    1
     2    18     1    1
     3     1     2   ar
     4     2    10    1
     5    10    11   ar
     6    11    12   ar
     7    12    13   ar
     8    13    14    1
     9    13    15   ar
    10    15    16   ar
    11     2     3   ar
    12     3     4   ar
    13     4     5   ar
    14     5    19    1
    15    21    19    1
    16    21    22    1
    17    22    23    1
    18    23    24    1
    19    24    25   am
    20    25    26    2
    21    25    28    1
    22    28    29    1
    23    29    30    1
    24    24    27    1
    25     5     6   ar
    26     6     7   ar
    27     7     8   ar
    28     8     9   ar
    29     9     1   ar
    30    16    10   ar
    31     9     4   ar
    32    27    21    1
    33    30    28    1
    34    19    20    1
@<TRIPOS>MOLECULE
*****
 30 34 0 0 0
SMALL
GASTEIGER

@<TRIPOS>ATOM
      1 N          61.7527   86.8638   10.4746 N.ar    1  UNL1       -0.2967
      2 C          62.5705   86.2128   11.5504 C.ar    1  UNL1        0.1480
      3 N          63.2709   87.2942   12.3186 N.ar    1  UNL1       -0.2223
      4 C          62.8858   88.6135   11.7175 C.ar    1  UNL1        0.1482
      5 C          63.2684   90.0227   12.0606 C.ar    1  UNL1        0.1511
      6 N          62.7127   91.1659   11.2642 N.ar    1  UNL1       -0.2076
      7 C          61.7744   90.8998   10.1246 C.ar    1  UNL1        0.2015
      8 N          61.3918   89.4906    9.7814 N.ar    1  UNL1       -0.2048
      9 C          61.9475   88.3475   10.5778 C.ar    1  UNL1        0.1672
     10 C          62.6705   84.7392   11.8121 C.ar    1  UNL1        0.0725
     11 C          63.2620   83.8316   10.7746 C.ar    1  UNL1        0.1048
     12 N          63.3619   82.3581   11.0363 N.ar    1  UNL1       -0.2290
     13 C          62.8703   81.7920   12.3355 C.ar    1  UNL1        0.1396
     14 C          62.9703   80.3183   12.5972 C.3     1  UNL1        0.0737
     15 N          62.2788   82.6995   13.3730 N.ar    1  UNL1       -0.2290
     16 C          62.1789   84.1731   13.1113 C.ar    1  UNL1        0.1048
     17 C          61.1204   86.3660    8.0043 C.3     1  UNL1        0.0266
     18 C          60.8912   86.1554    9.4716 C.3     1  UNL1        0.1090
     19 N          64.2068   90.2887   13.2003 N.pl3   1  UNL1       -0.3167
     20 H          65.0523   90.7670   13.0405 H       1  UNL1        0.1482
     21 C          63.8568   89.8260   14.5836 C.3     1  UNL1        0.0919
     22 C          63.6220   90.7067   15.7749 C.3     1  UNL1        0.0428
     23 C          63.3003   89.8263   16.9460 C.3     1  UNL1        0.0952
     24 N          63.3362   88.4015   16.4785 N.am    1  UNL1       -0.2778
     25 C          63.0742   87.1896   17.3227 C.2     1  UNL1        0.2252
     26 O          62.7399   87.3465   18.7765 O.2     1  UNL1       -0.2749
     27 C          63.6802   88.4013   15.0184 C.3     1  UNL1        0.1128
     28 C          63.1465   85.8210   16.7131 C.3     1  UNL1        0.0767
     29 C          63.9296   84.7512   16.0114 C.3     1  UNL1        0.0096
     30 C          62.4888   84.5202   16.3589 C.3     1  UNL1        0.0096
@<TRIPOS>BOND
     1    17    18    1
     2    18     1    1
     3     1     2   ar
     4     2    10    1
     5    10    11   ar
     6    11    12   ar
     7    12    13   ar
     8    13    14    1
     9    13    15   ar
    10    15    16   ar
    11     2     3   ar
    12     3     4   ar
    13     4     5   ar
    14     5    19    1
    15    21    19    1
    16    21    22    1
    17    22    23    1
    18    23    24    1
    19    24    25   am
    20    25    26    2
    21    25    28    1
    22    28    29    1
    23    29    30    1
    24    24    27    1
    25     5     6   ar
    26     6     7   ar
    27     7     8   ar
    28     8     9   ar
    29     9     1   ar
    30    16    10   ar
    31     9     4   ar
    32    27    21    1
    33    30    28    1
    34    19    20    1
