@<TRIPOS>MOLECULE
*****
 37 41 0 0 0
SMALL
GASTEIGER

@<TRIPOS>ATOM
      1 C          61.4349   93.1542    0.9373 C.ar    1  UNL1        0.0007
      2 C          62.2228   92.4856    2.0246 C.ar    1  UNL1        0.0013
      3 C          61.5544   92.1129    3.3147 C.ar    1  UNL1        0.0147
      4 C          60.0979   92.4089    3.5175 C.ar    1  UNL1        0.0516
      5 C          59.3100   93.0775    2.4302 C.ar    1  UNL1        0.0147
      6 C          59.9785   93.4502    1.1401 C.ar    1  UNL1        0.0013
      7 C          64.6512   95.5146   -2.4383 C.ar    1  UNL1        0.0283
      8 C          65.3674   96.3889   -1.4520 C.ar    1  UNL1        0.1008
      9 N          65.0018   96.3352    0.0018 N.ar    1  UNL1       -0.2296
     10 C          63.9199   95.4072    0.4692 C.ar    1  UNL1        0.1258
     11 N          63.5542   95.3535    1.9230 N.pl3   1  UNL1       -0.3426
     12 C          63.2037   94.5330   -0.5171 C.ar    1  UNL1        0.0377
     13 C          62.1035   93.5268   -0.3528 C.ar    1  UNL1        0.0096
     14 C          61.7891   92.9586   -1.7049 C.ar    1  UNL1        0.0355
     15 S          62.6951   93.6137   -2.7049 S.2     1  UNL1       -0.0863
     16 C          63.5694   94.5867   -1.9708 C.ar    1  UNL1        0.0337
     17 H          64.0243   95.9273    2.5703 H       1  UNL1        0.1437
     18 H          62.8442   94.7444    2.2298 H       1  UNL1        0.1437
     19 C          65.5464   94.1025   -7.4468 C.3     1  UNL1        0.1538
     20 N          65.4284   94.9193   -6.1943 N.ar    1  UNL1       -0.2473
     21 C          64.9871   94.4160   -4.8519 C.ar    1  UNL1        0.0967
     22 C          65.0169   95.5683   -3.8921 C.ar    1  UNL1        0.0416
     23 C          65.4765   96.7839   -4.6413 C.ar    1  UNL1        0.1217
     24 N          65.7308   96.3827   -6.0641 N.ar    1  UNL1       -0.1676
     25 N          59.4294   92.0363    4.8075 N.am    1  UNL1       -0.2681
     26 C          59.8313   90.7823    5.5256 C.2     1  UNL1        0.3082
     27 O          60.9018   89.9008    4.9536 O.2     1  UNL1       -0.2522
     28 N          59.1628   90.4097    6.8156 N.am    1  UNL1       -0.2680
     29 H          58.7268   92.6149    5.1829 H       1  UNL1        0.1564
     30 H          58.4602   90.9882    7.1910 H       1  UNL1        0.1564
     31 C          59.5648   89.1555    7.5338 C.ar    1  UNL1        0.0538
     32 C          59.0358   87.8279    7.0780 C.ar    1  UNL1        0.0149
     33 C          59.4377   86.5738    7.7960 C.ar    1  UNL1        0.0036
     34 C          60.3685   86.6473    8.9700 C.ar    1  UNL1        0.0297
     35 C          60.8975   87.9748    9.4258 C.ar    1  UNL1        0.1414
     36 F          61.8284   88.0483   10.5997 F       1  UNL1       -0.2041
     37 C          60.4956   89.2290    8.7077 C.ar    1  UNL1        0.0443
@<TRIPOS>BOND
     1    19    20    1
     2    20    21   ar
     3    21    22   ar
     4    22     7    1
     5     7     8   ar
     6     8     9   ar
     7     9    10   ar
     8    10    11    1
     9    10    12   ar
    10    12    13   ar
    11    13     1    1
    12     1     2   ar
    13     2     3   ar
    14     3     4   ar
    15     4    25    1
    16    25    26   am
    17    26    27    2
    18    26    28   am
    19    28    31    1
    20    31    32   ar
    21    32    33   ar
    22    33    34   ar
    23    34    35   ar
    24    35    36    1
    25    35    37   ar
    26     4     5   ar
    27     5     6   ar
    28    13    14   ar
    29    14    15   ar
    30    15    16   ar
    31    22    23   ar
    32    23    24   ar
    33    24    20   ar
    34    16     7   ar
    35    16    12   ar
    36     6     1   ar
    37    37    31   ar
    38    11    17    1
    39    11    18    1
    40    25    29    1
    41    28    30    1
@<TRIPOS>MOLECULE
*****
 37 41 0 0 0
SMALL
GASTEIGER

@<TRIPOS>ATOM
      1 C          61.8618   93.5383    1.3177 C.ar    1  UNL1        0.0007
      2 C          62.3167   92.3418    2.0997 C.ar    1  UNL1        0.0013
      3 C          61.4943   91.8401    3.2495 C.ar    1  UNL1        0.0147
      4 C          60.2169   92.5350    3.6173 C.ar    1  UNL1        0.0516
      5 C          59.7620   93.7315    2.8354 C.ar    1  UNL1        0.0147
      6 C          60.5844   94.2332    1.6856 C.ar    1  UNL1        0.0013
      7 C          63.2779   94.7426   -3.5664 C.ar    1  UNL1        0.0283
      8 C          62.0333   94.2686   -4.2566 C.ar    1  UNL1        0.1008
      9 N          60.9119   93.6748   -3.4567 N.ar    1  UNL1       -0.2296
     10 C          61.0351   93.5550   -1.9665 C.ar    1  UNL1        0.1258
     11 N          59.9138   92.9612   -1.1666 N.pl3   1  UNL1       -0.3426
     12 C          62.2797   94.0289   -1.2764 C.ar    1  UNL1        0.0377
     13 C          62.6843   94.0398    0.1680 C.ar    1  UNL1        0.0096
     14 C          64.0557   94.6404    0.2607 C.ar    1  UNL1        0.0355
     15 S          64.4987   95.0006   -1.1263 S.2     1  UNL1       -0.0863
     16 C          63.4011   94.6227   -2.0763 C.ar    1  UNL1        0.0337
     17 H          59.0969   92.6501   -1.6196 H       1  UNL1        0.1437
     18 H          59.9946   92.8825   -0.1886 H       1  UNL1        0.1437
     19 C          67.0440   95.4125   -7.2063 C.3     1  UNL1        0.1538
     20 N          66.1304   95.6443   -6.0394 N.ar    1  UNL1       -0.2473
     21 C          65.0673   94.7052   -5.5518 C.ar    1  UNL1        0.0967
     22 C          64.3993   95.3364   -4.3664 C.ar    1  UNL1        0.0416
     23 C          65.0496   96.6657   -4.1212 C.ar    1  UNL1        0.1217
     24 N          66.1195   96.8560   -5.1553 N.ar    1  UNL1       -0.1676
     25 N          59.3944   92.0334    4.7671 N.am    1  UNL1       -0.2681
     26 C          59.8511   90.8390    5.5511 C.2     1  UNL1        0.3082
     27 O          61.1302   90.1461    5.1853 O.2     1  UNL1       -0.2522
     28 N          59.0286   90.3374    6.7008 N.am    1  UNL1       -0.2680
     29 H          58.5549   92.4882    5.0071 H       1  UNL1        0.1564
     30 H          58.1891   90.7922    6.9408 H       1  UNL1        0.1564
     31 C          59.4853   89.1429    7.4849 C.ar    1  UNL1        0.0538
     32 C          59.0503   87.7667    7.0765 C.ar    1  UNL1        0.0149
     33 C          59.5070   86.5722    7.8605 C.ar    1  UNL1        0.0036
     34 C          60.3986   86.7540    9.0529 C.ar    1  UNL1        0.0297
     35 C          60.8335   88.1302    9.4614 C.ar    1  UNL1        0.1414
     36 F          61.7251   88.3120   10.6538 F       1  UNL1       -0.2041
     37 C          60.3769   89.3247    8.6774 C.ar    1  UNL1        0.0443
@<TRIPOS>BOND
     1    19    20    1
     2    20    21   ar
     3    21    22   ar
     4    22     7    1
     5     7     8   ar
     6     8     9   ar
     7     9    10   ar
     8    10    11    1
     9    10    12   ar
    10    12    13   ar
    11    13     1    1
    12     1     2   ar
    13     2     3   ar
    14     3     4   ar
    15     4    25    1
    16    25    26   am
    17    26    27    2
    18    26    28   am
    19    28    31    1
    20    31    32   ar
    21    32    33   ar
    22    33    34   ar
    23    34    35   ar
    24    35    36    1
    25    35    37   ar
    26     4     5   ar
    27     5     6   ar
    28    13    14   ar
    29    14    15   ar
    30    15    16   ar
    31    22    23   ar
    32    23    24   ar
    33    24    20   ar
    34    16     7   ar
    35    16    12   ar
    36     6     1   ar
    37    37    31   ar
    38    11    17    1
    39    11    18    1
    40    25    29    1
    41    28    30    1
@<TRIPOS>MOLECULE
*****
 37 41 0 0 0
SMALL
GASTEIGER

@<TRIPOS>ATOM
      1 C          60.3418   87.9659    8.7714 C.ar    1  UNL1        0.0007
      2 C          60.6811   89.4263    8.7238 C.ar    1  UNL1        0.0013
      3 C          60.0869   90.3001    7.6591 C.ar    1  UNL1        0.0147
      4 C          59.1535   89.7135    6.6420 C.ar    1  UNL1        0.0516
      5 C          58.8142   88.2531    6.6896 C.ar    1  UNL1        0.0147
      6 C          59.4083   87.3793    7.7543 C.ar    1  UNL1        0.0013
      7 C          63.0937   84.1422   11.0335 C.ar    1  UNL1        0.0283
      8 C          63.6410   83.5239    9.7813 C.ar    1  UNL1        0.1008
      9 N          63.2878   84.1021    8.4430 N.ar    1  UNL1       -0.2296
     10 C          62.3873   85.2987    8.3570 C.ar    1  UNL1        0.1258
     11 N          62.0342   85.8769    7.0188 N.pl3   1  UNL1       -0.3426
     12 C          61.8400   85.9170    9.6093 C.ar    1  UNL1        0.0377
     13 C          60.9359   87.0922    9.8361 C.ar    1  UNL1        0.0096
     14 C          60.7303   87.2403   11.3145 C.ar    1  UNL1        0.0355
     15 S          61.5073   86.1566   12.0014 S.2     1  UNL1       -0.0863
     16 C          62.1932   85.3388   10.9475 C.ar    1  UNL1        0.0337
     17 H          62.3934   85.4711    6.1969 H       1  UNL1        0.1437
     18 H          61.4432   86.6623    6.9623 H       1  UNL1        0.1437
     19 C          64.5775   83.7059   16.0821 C.3     1  UNL1        0.1538
     20 N          64.1289   83.3634   14.6924 N.ar    1  UNL1       -0.2473
     21 C          63.8787   84.3393   13.5811 C.ar    1  UNL1        0.0967
     22 C          63.4468   83.5640   12.3718 C.ar    1  UNL1        0.0416
     23 C          63.4301   82.1088   12.7357 C.ar    1  UNL1        0.1217
     24 N          63.8516   81.9849   14.1699 N.ar    1  UNL1       -0.1676
     25 N          58.5593   90.5872    5.5773 N.am    1  UNL1       -0.2681
     26 C          59.4545   91.3199    4.6225 C.2     1  UNL1        0.3082
     27 O          60.9438   91.1789    4.7324 O.2     1  UNL1       -0.2522
     28 N          58.8604   92.1936    3.5578 N.am    1  UNL1       -0.2680
     29 H          57.5818   90.6797    5.5052 H       1  UNL1        0.1564
     30 H          57.8829   92.2861    3.4857 H       1  UNL1        0.1564
     31 C          59.7556   92.9264    2.6029 C.ar    1  UNL1        0.0538
     32 C          60.1980   94.3257    2.9133 C.ar    1  UNL1        0.0149
     33 C          61.0932   95.0585    1.9585 C.ar    1  UNL1        0.0036
     34 C          61.5459   94.3920    0.6933 C.ar    1  UNL1        0.0297
     35 C          61.1035   92.9927    0.3829 C.ar    1  UNL1        0.1414
     36 F          61.5562   92.3262   -0.8824 F       1  UNL1       -0.2041
     37 C          60.2083   92.2599    1.3377 C.ar    1  UNL1        0.0443
@<TRIPOS>BOND
     1    19    20    1
     2    20    21   ar
     3    21    22   ar
     4    22     7    1
     5     7     8   ar
     6     8     9   ar
     7     9    10   ar
     8    10    11    1
     9    10    12   ar
    10    12    13   ar
    11    13     1    1
    12     1     2   ar
    13     2     3   ar
    14     3     4   ar
    15     4    25    1
    16    25    26   am
    17    26    27    2
    18    26    28   am
    19    28    31    1
    20    31    32   ar
    21    32    33   ar
    22    33    34   ar
    23    34    35   ar
    24    35    36    1
    25    35    37   ar
    26     4     5   ar
    27     5     6   ar
    28    13    14   ar
    29    14    15   ar
    30    15    16   ar
    31    22    23   ar
    32    23    24   ar
    33    24    20   ar
    34    16     7   ar
    35    16    12   ar
    36     6     1   ar
    37    37    31   ar
    38    11    17    1
    39    11    18    1
    40    25    29    1
    41    28    30    1
@<TRIPOS>MOLECULE
*****
 37 41 0 0 0
SMALL
GASTEIGER

@<TRIPOS>ATOM
      1 C          61.5040   93.5614    1.2180 C.ar    1  UNL1        0.0007
      2 C          62.1042   92.4655    2.0479 C.ar    1  UNL1        0.0013
      3 C          61.3722   91.9489    3.2510 C.ar    1  UNL1        0.0147
      4 C          60.0399   92.5282    3.6241 C.ar    1  UNL1        0.0516
      5 C          59.4396   93.6241    2.7942 C.ar    1  UNL1        0.0147
      6 C          60.1717   94.1407    1.5912 C.ar    1  UNL1        0.0013
      7 C          62.5667   94.7732   -3.7532 C.ar    1  UNL1        0.0283
      8 C          61.2934   94.2614   -4.3589 C.ar    1  UNL1        0.1008
      9 N          60.2430   93.6424   -3.4851 N.ar    1  UNL1       -0.2296
     10 C          60.4659   93.5352   -2.0056 C.ar    1  UNL1        0.1258
     11 N          59.4155   92.9162   -1.1318 N.pl3   1  UNL1       -0.3426
     12 C          61.7391   94.0470   -1.3999 C.ar    1  UNL1        0.0377
     13 C          62.2361   94.0779    0.0150 C.ar    1  UNL1        0.0096
     14 C          63.5936   94.7160    0.0158 C.ar    1  UNL1        0.0355
     15 S          63.9356   95.0794   -1.3988 S.2     1  UNL1       -0.0863
     16 C          62.7895   94.6660   -2.2737 C.ar    1  UNL1        0.0337
     17 H          58.5798   92.5803   -1.5294 H       1  UNL1        0.1437
     18 H          59.5618   92.8459   -0.1608 H       1  UNL1        0.1437
     19 C          67.1238   96.8541   -5.4216 C.3     1  UNL1        0.1538
     20 N          65.7118   96.3487   -5.3939 N.ar    1  UNL1       -0.2473
     21 C          65.0084   95.7624   -4.2058 C.ar    1  UNL1        0.0967
     22 C          63.6171   95.3922   -4.6270 C.ar    1  UNL1        0.0416
     23 C          63.4606   95.7497   -6.0754 C.ar    1  UNL1        0.1217
     24 N          64.7553   96.3409   -6.5493 N.ar    1  UNL1       -0.1676
     25 N          59.3078   92.0117    4.8271 N.am    1  UNL1       -0.2681
     26 C          59.8536   90.8429    5.5925 C.2     1  UNL1        0.3082
     27 O          61.1315   90.1905    5.1549 O.2     1  UNL1       -0.2522
     28 N          59.1215   90.3263    6.7955 N.am    1  UNL1       -0.2680
     29 H          58.4691   92.4398    5.1144 H       1  UNL1        0.1564
     30 H          58.2828   90.7545    7.0827 H       1  UNL1        0.1564
     31 C          59.6674   89.1574    7.5610 C.ar    1  UNL1        0.0538
     32 C          60.4185   89.3830    8.8396 C.ar    1  UNL1        0.0149
     33 C          60.9643   88.2142    9.6051 C.ar    1  UNL1        0.0036
     34 C          60.7590   86.8198    9.0918 C.ar    1  UNL1        0.0297
     35 C          60.0079   86.5942    7.8132 C.ar    1  UNL1        0.1414
     36 F          59.8025   85.1998    7.2999 F       1  UNL1       -0.2041
     37 C          59.4621   87.7630    7.0477 C.ar    1  UNL1        0.0443
@<TRIPOS>BOND
     1    19    20    1
     2    20    21   ar
     3    21    22   ar
     4    22     7    1
     5     7     8   ar
     6     8     9   ar
     7     9    10   ar
     8    10    11    1
     9    10    12   ar
    10    12    13   ar
    11    13     1    1
    12     1     2   ar
    13     2     3   ar
    14     3     4   ar
    15     4    25    1
    16    25    26   am
    17    26    27    2
    18    26    28   am
    19    28    31    1
    20    31    32   ar
    21    32    33   ar
    22    33    34   ar
    23    34    35   ar
    24    35    36    1
    25    35    37   ar
    26     4     5   ar
    27     5     6   ar
    28    13    14   ar
    29    14    15   ar
    30    15    16   ar
    31    22    23   ar
    32    23    24   ar
    33    24    20   ar
    34    16     7   ar
    35    16    12   ar
    36     6     1   ar
    37    37    31   ar
    38    11    17    1
    39    11    18    1
    40    25    29    1
    41    28    30    1
@<TRIPOS>MOLECULE
*****
 37 41 0 0 0
SMALL
GASTEIGER

@<TRIPOS>ATOM
      1 C          60.5473   88.0418    8.6491 C.ar    1  UNL1        0.0007
      2 C          60.4579   89.5090    8.9478 C.ar    1  UNL1        0.0013
      3 C          59.8496   90.4432    7.9442 C.ar    1  UNL1        0.0147
      4 C          59.3306   89.9100    6.6417 C.ar    1  UNL1        0.0516
      5 C          59.4199   88.4428    6.3430 C.ar    1  UNL1        0.0147
      6 C          60.0283   87.5086    7.3466 C.ar    1  UNL1        0.0013
      7 C          63.2430   86.3428   12.7912 C.ar    1  UNL1        0.0283
      8 C          63.7015   87.6804   13.2920 C.ar    1  UNL1        0.1008
      9 N          63.3077   88.9299   12.5616 N.ar    1  UNL1       -0.2296
     10 C          62.4554   88.8419   11.3303 C.ar    1  UNL1        0.1258
     11 N          62.0616   90.0914   10.5999 N.pl3   1  UNL1       -0.3426
     12 C          61.9970   87.5043   10.8295 C.ar    1  UNL1        0.0377
     13 C          61.1556   87.1077    9.6528 C.ar    1  UNL1        0.0096
     14 C          61.0294   85.6130    9.6559 C.ar    1  UNL1        0.0355
     15 S          61.7928   85.0859   10.8346 S.2     1  UNL1       -0.0863
     16 C          62.3908   86.2548   11.5600 C.ar    1  UNL1        0.0337
     17 H          62.3625   90.9693   10.9286 H       1  UNL1        0.1437
     18 H          61.5023   90.0337    9.7918 H       1  UNL1        0.1437
     19 C          64.0366   81.2598   13.9806 C.3     1  UNL1        0.1538
     20 N          64.0016   82.7568   14.0684 N.ar    1  UNL1       -0.2473
     21 C          63.4780   83.6897   13.0169 C.ar    1  UNL1        0.0967
     22 C          63.6368   85.0932   13.5217 C.ar    1  UNL1        0.0416
     23 C          64.2586   85.0279   14.8852 C.ar    1  UNL1        0.1217
     24 N          64.4840   83.5838   15.2231 N.ar    1  UNL1       -0.1676
     25 N          58.7222   90.8441    5.6380 N.am    1  UNL1       -0.2681
     26 C          59.5888   91.5059    4.6079 C.2     1  UNL1        0.3082
     27 O          61.0636   91.2336    4.5815 O.2     1  UNL1       -0.2522
     28 N          58.9804   92.4399    3.6042 N.am    1  UNL1       -0.2680
     29 H          57.7542   91.0228    5.6554 H       1  UNL1        0.1564
     30 H          58.0124   92.6186    3.6216 H       1  UNL1        0.1564
     31 C          59.8470   93.1018    2.5740 C.ar    1  UNL1        0.0538
     32 C          60.3460   94.4983    2.7990 C.ar    1  UNL1        0.0149
     33 C          61.2125   95.1602    1.7689 C.ar    1  UNL1        0.0036
     34 C          61.5799   94.4254    0.5138 C.ar    1  UNL1        0.0297
     35 C          61.0809   93.0289    0.2889 C.ar    1  UNL1        0.1414
     36 F          61.4484   92.2941   -0.9661 F       1  UNL1       -0.2041
     37 C          60.2144   92.3670    1.3190 C.ar    1  UNL1        0.0443
@<TRIPOS>BOND
     1    19    20    1
     2    20    21   ar
     3    21    22   ar
     4    22     7    1
     5     7     8   ar
     6     8     9   ar
     7     9    10   ar
     8    10    11    1
     9    10    12   ar
    10    12    13   ar
    11    13     1    1
    12     1     2   ar
    13     2     3   ar
    14     3     4   ar
    15     4    25    1
    16    25    26   am
    17    26    27    2
    18    26    28   am
    19    28    31    1
    20    31    32   ar
    21    32    33   ar
    22    33    34   ar
    23    34    35   ar
    24    35    36    1
    25    35    37   ar
    26     4     5   ar
    27     5     6   ar
    28    13    14   ar
    29    14    15   ar
    30    15    16   ar
    31    22    23   ar
    32    23    24   ar
    33    24    20   ar
    34    16     7   ar
    35    16    12   ar
    36     6     1   ar
    37    37    31   ar
    38    11    17    1
    39    11    18    1
    40    25    29    1
    41    28    30    1
@<TRIPOS>MOLECULE
*****
 37 41 0 0 0
SMALL
GASTEIGER

@<TRIPOS>ATOM
      1 C          63.4320   87.3283   12.5835 C.ar    1  UNL1        0.0007
      2 C          62.8529   88.2714   11.5710 C.ar    1  UNL1        0.0013
      3 C          63.0990   89.7461   11.6925 C.ar    1  UNL1        0.0147
      4 C          63.9244   90.2777   12.8266 C.ar    1  UNL1        0.0516
      5 C          64.5036   89.3346   13.8391 C.ar    1  UNL1        0.0147
      6 C          64.2574   87.8599   13.7175 C.ar    1  UNL1        0.0013
      7 C          62.7091   82.3305   13.9289 C.ar    1  UNL1        0.0283
      8 C          62.8315   82.5049   15.4137 C.ar    1  UNL1        0.1008
      9 N          63.0881   83.8656   15.9904 N.ar    1  UNL1       -0.2296
     10 C          63.2224   85.0519   15.0823 C.ar    1  UNL1        0.1258
     11 N          63.4790   86.4126   15.6590 N.pl3   1  UNL1       -0.3426
     12 C          63.1000   84.8775   13.5976 C.ar    1  UNL1        0.0377
     13 C          63.1858   85.8537   12.4618 C.ar    1  UNL1        0.0096
     14 C          62.9822   85.0963   11.1832 C.ar    1  UNL1        0.0355
     15 S          62.7706   83.6520   11.5287 S.2     1  UNL1       -0.0863
     16 C          62.8433   83.5168   13.0208 C.ar    1  UNL1        0.0337
     17 H          63.5593   86.5271   16.6336 H       1  UNL1        0.1437
     18 H          63.5672   87.1913   15.0630 H       1  UNL1        0.1437
     19 C          62.5846   78.2239   10.6121 C.3     1  UNL1        0.1538
     20 N          62.3952   79.0822   11.8276 N.ar    1  UNL1       -0.2473
     21 C          62.8480   80.5038   11.9824 C.ar    1  UNL1        0.0967
     22 C          62.4524   80.9698   13.3522 C.ar    1  UNL1        0.0416
     23 C          61.7551   79.8361   14.0440 C.ar    1  UNL1        0.1217
     24 N          61.7197   78.6695   13.1017 N.ar    1  UNL1       -0.1676
     25 N          64.1706   91.7523   12.9482 N.am    1  UNL1       -0.2681
     26 C          64.9805   92.4658   11.9066 C.2     1  UNL1        0.3082
     27 O          65.5442   91.7047   10.7434 O.2     1  UNL1       -0.2522
     28 N          65.2267   93.9404   12.0282 N.am    1  UNL1       -0.2680
     29 H          63.8007   92.2519   13.7116 H       1  UNL1        0.1564
     30 H          64.8568   94.4400   12.7917 H       1  UNL1        0.1564
     31 C          66.0367   94.6540   10.9866 C.ar    1  UNL1        0.0538
     32 C          65.9228   96.1422   10.8374 C.ar    1  UNL1        0.0149
     33 C          66.7326   96.8559    9.7959 C.ar    1  UNL1        0.0036
     34 C          67.6564   96.0812    8.9035 C.ar    1  UNL1        0.0297
     35 C          67.7704   94.5930    9.0526 C.ar    1  UNL1        0.1414
     36 F          68.6942   93.8183    8.1601 F       1  UNL1       -0.2041
     37 C          66.9605   93.8794   10.0941 C.ar    1  UNL1        0.0443
@<TRIPOS>BOND
     1    19    20    1
     2    20    21   ar
     3    21    22   ar
     4    22     7    1
     5     7     8   ar
     6     8     9   ar
     7     9    10   ar
     8    10    11    1
     9    10    12   ar
    10    12    13   ar
    11    13     1    1
    12     1     2   ar
    13     2     3   ar
    14     3     4   ar
    15     4    25    1
    16    25    26   am
    17    26    27    2
    18    26    28   am
    19    28    31    1
    20    31    32   ar
    21    32    33   ar
    22    33    34   ar
    23    34    35   ar
    24    35    36    1
    25    35    37   ar
    26     4     5   ar
    27     5     6   ar
    28    13    14   ar
    29    14    15   ar
    30    15    16   ar
    31    22    23   ar
    32    23    24   ar
    33    24    20   ar
    34    16     7   ar
    35    16    12   ar
    36     6     1   ar
    37    37    31   ar
    38    11    17    1
    39    11    18    1
    40    25    29    1
    41    28    30    1
@<TRIPOS>MOLECULE
*****
 37 41 0 0 0
SMALL
GASTEIGER

@<TRIPOS>ATOM
      1 C          59.9952   89.1091    7.0148 C.ar    1  UNL1        0.0007
      2 C          61.0348   89.8265    6.2058 C.ar    1  UNL1        0.0013
      3 C          60.6262   90.9040    5.2455 C.ar    1  UNL1        0.0147
      4 C          59.1779   91.2641    5.0943 C.ar    1  UNL1        0.0516
      5 C          58.1384   90.5467    5.9034 C.ar    1  UNL1        0.0147
      6 C          58.5470   89.4691    6.8637 C.ar    1  UNL1        0.0013
      7 C          62.1427   86.7683   11.1645 C.ar    1  UNL1        0.0283
      8 C          62.7321   87.9925   11.8002 C.ar    1  UNL1        0.1008
      9 N          62.5565   89.3332   11.1508 N.ar    1  UNL1       -0.2296
     10 C          61.7914   89.4497    9.8658 C.ar    1  UNL1        0.1258
     11 N          61.6158   90.7904    9.2164 N.pl3   1  UNL1       -0.3426
     12 C          61.2020   88.2255    9.2303 C.ar    1  UNL1        0.0377
     13 C          60.4039   88.0316    7.9750 C.ar    1  UNL1        0.0096
     14 C          60.0863   86.5711    7.8486 C.ar    1  UNL1        0.0355
     15 S          60.6881   85.8623    9.0257 S.2     1  UNL1       -0.0863
     16 C          61.3776   86.8848    9.8796 C.ar    1  UNL1        0.0337
     17 H          62.0026   91.5938    9.6336 H       1  UNL1        0.1437
     18 H          61.1136   90.8669    8.3731 H       1  UNL1        0.1437
     19 C          62.5341   82.9650   14.8063 C.3     1  UNL1        0.1538
     20 N          62.4983   83.6794   13.4879 N.ar    1  UNL1       -0.2473
     21 C          62.2754   85.1491   13.2872 C.ar    1  UNL1        0.0967
     22 C          62.3183   85.4276   11.8139 C.ar    1  UNL1        0.0416
     23 C          62.5677   84.1299   11.1039 C.ar    1  UNL1        0.1217
     24 N          62.6789   83.0495   12.1386 N.ar    1  UNL1       -0.1676
     25 N          58.7693   92.3415    4.1341 N.am    1  UNL1       -0.2681
     26 C          59.7467   92.8487    3.1157 C.2     1  UNL1        0.3082
     27 O          61.1329   92.2784    3.0574 O.2     1  UNL1       -0.2522
     28 N          59.3381   93.9262    2.1555 N.am    1  UNL1       -0.2680
     29 H          57.8595   92.7159    4.1724 H       1  UNL1        0.1564
     30 H          58.4283   94.3005    2.1937 H       1  UNL1        0.1564
     31 C          60.3156   94.4334    1.1369 C.ar    1  UNL1        0.0538
     32 C          61.0379   95.7272    1.3699 C.ar    1  UNL1        0.0149
     33 C          62.0154   96.2344    0.3514 C.ar    1  UNL1        0.0036
     34 C          62.2705   95.4478   -0.9000 C.ar    1  UNL1        0.0297
     35 C          61.5481   94.1540   -1.1330 C.ar    1  UNL1        0.1414
     36 F          61.8033   93.3673   -2.3844 F       1  UNL1       -0.2041
     37 C          60.5707   93.6467   -0.1145 C.ar    1  UNL1        0.0443
@<TRIPOS>BOND
     1    19    20    1
     2    20    21   ar
     3    21    22   ar
     4    22     7    1
     5     7     8   ar
     6     8     9   ar
     7     9    10   ar
     8    10    11    1
     9    10    12   ar
    10    12    13   ar
    11    13     1    1
    12     1     2   ar
    13     2     3   ar
    14     3     4   ar
    15     4    25    1
    16    25    26   am
    17    26    27    2
    18    26    28   am
    19    28    31    1
    20    31    32   ar
    21    32    33   ar
    22    33    34   ar
    23    34    35   ar
    24    35    36    1
    25    35    37   ar
    26     4     5   ar
    27     5     6   ar
    28    13    14   ar
    29    14    15   ar
    30    15    16   ar
    31    22    23   ar
    32    23    24   ar
    33    24    20   ar
    34    16     7   ar
    35    16    12   ar
    36     6     1   ar
    37    37    31   ar
    38    11    17    1
    39    11    18    1
    40    25    29    1
    41    28    30    1
