@<TRIPOS>MOLECULE
*****
 40 46 0 0 0
SMALL
GASTEIGER

@<TRIPOS>ATOM
      1 N          62.5456   86.4794   12.6484 N.ar    1  UNL1       -0.2984
      2 C          63.1795   85.3603   13.4203 C.ar    1  UNL1        0.2013
      3 N          64.2748   85.9417   14.2642 N.ar    1  UNL1       -0.2135
      4 C          64.3180   87.4200   14.0138 C.ar    1  UNL1        0.1030
      5 C          65.1923   88.5065   14.5662 C.ar    1  UNL1        0.0429
      6 C          64.9979   89.9253   14.1199 C.ar    1  UNL1        0.1194
      7 N          63.9291   90.2576   13.1212 N.ar    1  UNL1       -0.2406
      8 C          63.0548   89.1711   12.5689 C.ar    1  UNL1        0.1001
      9 C          63.2492   87.7523   13.0152 C.ar    1  UNL1        0.0977
     10 N          62.7869   83.9139   13.3591 N.pl3   1  UNL1       -0.2762
     11 C          61.9153   83.3274   14.4297 C.3     1  UNL1        0.1256
     12 C          61.5227   81.8809   14.3685 C.3     1  UNL1        0.1635
     13 O          62.0018   81.0211   13.2366 O.3     1  UNL1       -0.3527
     14 C          62.8734   81.6077   12.1660 C.3     1  UNL1        0.1333
     15 C          63.4938   81.0107   10.9377 C.3     1  UNL1        0.0313
     16 C          64.2697   82.0880   10.2398 C.3     1  UNL1        0.0043
     17 C          64.1289   83.3510   11.0368 C.3     1  UNL1        0.0224
     18 C          63.2660   83.0540   12.2272 C.3     1  UNL1        0.1026
     19 C          65.8723   91.0118   14.6722 C.ar    1  UNL1        0.1937
     20 N          65.4958   91.9834   15.7512 N.ar    1  UNL1       -0.1955
     21 O          66.6674   92.8895   15.9884 O.2     1  UNL1       -0.3201
     22 C          67.7680   92.4779   15.0561 C.ar    1  UNL1        0.4608
     23 O          69.1222   93.1149   14.9549 O.2     1  UNL1       -0.2188
     24 N          67.2765   91.3174   14.2426 N.ar    1  UNL1       -0.1516
     25 H          64.6315   92.0200   16.2212 H       1  UNL1        0.2093
     26 C          61.9860   89.5035   11.5703 C.ar    1  UNL1        0.0391
     27 C          62.1843   89.1715   10.1210 C.ar    1  UNL1        0.1004
     28 N          61.1156   89.5038    9.1223 N.ar    1  UNL1       -0.2414
     29 C          59.8485   90.1682    9.5729 C.ar    1  UNL1        0.1102
     30 C          59.6501   90.5002   11.0223 C.ar    1  UNL1        0.0769
     31 CL         58.3830   91.1645   11.4729 Cl      1  UNL1       -0.0806
     32 C          60.7189   90.1678   12.0209 C.ar    1  UNL1        0.0161
     33 C          61.4078   86.3484   11.6797 C.3     1  UNL1        0.1087
     34 C          62.4801   84.7921    5.9852 C.3     1  UNL1        0.0000
     35 C          62.2120   85.1812    7.4089 C.3     1  UNL1        0.0000
     36 C          60.8467   85.6530    7.8131 C.3     1  UNL1        0.0001
     37 C          60.5786   86.0421    9.2366 C.3     1  UNL1        0.0019
     38 C          61.6758   85.9594   10.2561 C.3     1  UNL1        0.0227
     39 C          63.0412   85.4875    9.8519 C.3     1  UNL1        0.0019
     40 C          63.3092   85.0984    8.4283 C.3     1  UNL1        0.0001
@<TRIPOS>BOND
     1    35    34    1
     2    35    36    1
     3    36    37    1
     4    37    38    1
     5    38    33    1
     6    33     1    1
     7     1     2   ar
     8     2    10    1
     9    10    11    1
    10    11    12    1
    11    12    13    1
    12    13    14    1
    13    14    15    1
    14    15    16    1
    15    16    17    1
    16    18    17    1
    17     2     3   ar
    18     3     4   ar
    19     4     5   ar
    20     5     6   ar
    21     6    19    1
    22    19    20   ar
    23    20    21   ar
    24    21    22   ar
    25    22    23    2
    26    22    24   ar
    27     6     7   ar
    28     7     8   ar
    29     8    26    1
    30    26    27   ar
    31    27    28   ar
    32    28    29   ar
    33    29    30   ar
    34    30    31    1
    35    30    32   ar
    36     8     9   ar
    37    38    39    1
    38    39    40    1
    39    40    35    1
    40     9     1   ar
    41    18    10    1
    42     9     4   ar
    43    18    14    1
    44    24    19   ar
    45    32    26   ar
    46    20    25    1
@<TRIPOS>MOLECULE
*****
 40 46 0 0 0
SMALL
GASTEIGER

@<TRIPOS>ATOM
      1 N          62.3019   87.6560   11.8129 N.ar    1  UNL1       -0.2984
      2 C          61.9236   88.1725   10.4564 C.ar    1  UNL1        0.2013
      3 N          62.5993   89.4971   10.2598 N.ar    1  UNL1       -0.2135
      4 C          63.3953   89.7993   11.4947 C.ar    1  UNL1        0.1030
      5 C          64.2638   90.9636   11.8693 C.ar    1  UNL1        0.0429
      6 C          64.9484   90.9900   13.2037 C.ar    1  UNL1        0.1194
      7 N          64.7645   89.8521   14.1635 N.ar    1  UNL1       -0.2406
      8 C          63.8961   88.6879   13.7890 C.ar    1  UNL1        0.1001
      9 C          63.2115   88.6615   12.4546 C.ar    1  UNL1        0.0977
     10 N          61.0269   87.4851    9.4698 N.pl3   1  UNL1       -0.2762
     11 C          59.5643   87.8154    9.4286 C.3     1  UNL1        0.1256
     12 C          58.6677   87.1280    8.4420 C.3     1  UNL1        0.1635
     13 O          59.2336   86.1101    7.4966 O.3     1  UNL1       -0.3527
     14 C          60.6962   85.7798    7.5379 C.3     1  UNL1        0.1333
     15 C          61.5330   84.8271    6.7366 C.3     1  UNL1        0.0313
     16 C          62.9468   84.9257    7.2278 C.3     1  UNL1        0.0043
     17 C          62.9838   85.9395    8.3329 C.3     1  UNL1        0.0224
     18 C          61.5928   86.4673    8.5245 C.3     1  UNL1        0.1026
     19 C          65.8169   92.1543   13.5781 C.ar    1  UNL1        0.1937
     20 N          65.9918   93.4150   12.7843 N.ar    1  UNL1       -0.1955
     21 O          66.9459   94.3021   13.5276 O.2     1  UNL1       -0.3201
     22 C          67.3606   93.5899   14.7809 C.ar    1  UNL1        0.4608
     23 O          68.3069   94.1132   15.8204 O.2     1  UNL1       -0.2188
     24 N          66.6628   92.2624   14.8121 N.ar    1  UNL1       -0.1516
     25 H          65.5569   93.6234   11.9260 H       1  UNL1        0.2093
     26 C          63.7123   87.5500   14.7490 C.ar    1  UNL1        0.0391
     27 C          63.0253   87.7803   16.0624 C.ar    1  UNL1        0.1004
     28 N          62.8415   86.6424   17.0224 N.ar    1  UNL1       -0.2414
     29 C          63.3446   85.2743   16.6689 C.ar    1  UNL1        0.1102
     30 C          64.0316   85.0440   15.3554 C.ar    1  UNL1        0.0769
     31 CL         64.5348   83.6758   15.0020 Cl      1  UNL1       -0.0806
     32 C          64.2154   86.1818   14.3955 C.ar    1  UNL1        0.0161
     33 C          61.8500   86.3614   12.4210 C.3     1  UNL1        0.1087
     34 C          64.1288   81.1689   10.4601 C.3     1  UNL1        0.0000
     35 C          63.5590   82.4671   10.9504 C.3     1  UNL1        0.0000
     36 C          64.0308   83.7633   10.3610 C.3     1  UNL1        0.0001
     37 C          63.4611   85.0614   10.8512 C.3     1  UNL1        0.0019
     38 C          62.4197   85.0634   11.9308 C.3     1  UNL1        0.0227
     39 C          61.9479   83.7671   12.5201 C.3     1  UNL1        0.0019
     40 C          62.5176   82.4690   12.0299 C.3     1  UNL1        0.0001
@<TRIPOS>BOND
     1    35    34    1
     2    35    36    1
     3    36    37    1
     4    37    38    1
     5    38    33    1
     6    33     1    1
     7     1     2   ar
     8     2    10    1
     9    10    11    1
    10    11    12    1
    11    12    13    1
    12    13    14    1
    13    14    15    1
    14    15    16    1
    15    16    17    1
    16    18    17    1
    17     2     3   ar
    18     3     4   ar
    19     4     5   ar
    20     5     6   ar
    21     6    19    1
    22    19    20   ar
    23    20    21   ar
    24    21    22   ar
    25    22    23    2
    26    22    24   ar
    27     6     7   ar
    28     7     8   ar
    29     8    26    1
    30    26    27   ar
    31    27    28   ar
    32    28    29   ar
    33    29    30   ar
    34    30    31    1
    35    30    32   ar
    36     8     9   ar
    37    38    39    1
    38    39    40    1
    39    40    35    1
    40     9     1   ar
    41    18    10    1
    42     9     4   ar
    43    18    14    1
    44    24    19   ar
    45    32    26   ar
    46    20    25    1
@<TRIPOS>MOLECULE
*****
 40 46 0 0 0
SMALL
GASTEIGER

@<TRIPOS>ATOM
      1 N          63.6036   89.3343   13.6049 N.ar    1  UNL1       -0.2984
      2 C          64.5048   89.4261   14.8005 C.ar    1  UNL1        0.2013
      3 N          64.8968   88.0327   15.1935 N.ar    1  UNL1       -0.2135
      4 C          64.2380   87.0796   14.2408 C.ar    1  UNL1        0.1030
      5 C          64.2626   85.5831   14.1404 C.ar    1  UNL1        0.0429
      6 C          63.4879   84.8912   13.0582 C.ar    1  UNL1        0.1194
      7 N          62.6887   85.6957   12.0764 N.ar    1  UNL1       -0.2406
      8 C          62.6641   87.1921   12.1768 C.ar    1  UNL1        0.1001
      9 C          63.4388   87.8841   13.2590 C.ar    1  UNL1        0.0977
     10 N          64.9378   90.6896   15.4832 N.pl3   1  UNL1       -0.2762
     11 C          64.0413   91.3411   16.4940 C.3     1  UNL1        0.1256
     12 C          64.4743   92.6046   17.1768 C.3     1  UNL1        0.1635
     13 O          65.8039   93.2166   16.8487 O.3     1  UNL1       -0.3527
     14 C          66.7004   92.5650   15.8378 C.3     1  UNL1        0.1333
     15 C          68.0566   92.9337   15.3135 C.3     1  UNL1        0.0313
     16 C          68.4618   91.8982   14.3069 C.3     1  UNL1        0.0043
     17 C          67.3559   90.8894   14.2090 C.3     1  UNL1        0.0224
     18 C          66.2674   91.3016   15.1551 C.3     1  UNL1        0.1026
     19 C          63.5125   83.3947   12.9579 C.ar    1  UNL1        0.1937
     20 N          64.6513   82.5641   12.4447 N.ar    1  UNL1       -0.1955
     21 O          64.2453   81.1223   12.5228 O.2     1  UNL1       -0.3201
     22 C          62.8557   81.0617   13.0843 C.ar    1  UNL1        0.4608
     23 O          62.0588   79.8155   13.3331 O.2     1  UNL1       -0.2188
     24 N          62.4028   82.4662   13.3532 N.ar    1  UNL1       -0.1516
     25 H          65.5137   82.9054   12.1146 H       1  UNL1        0.2093
     26 C          61.8649   87.9966   11.1949 C.ar    1  UNL1        0.0391
     27 C          62.0299   87.7621    9.7226 C.ar    1  UNL1        0.1004
     28 N          61.2307   88.5665    8.7407 N.ar    1  UNL1       -0.2414
     29 C          60.2664   89.6055    9.2311 C.ar    1  UNL1        0.1102
     30 C          60.1013   89.8400   10.7035 C.ar    1  UNL1        0.0769
     31 CL         59.1369   90.8790   11.1940 Cl      1  UNL1       -0.0806
     32 C          60.9005   89.0356   11.6854 C.ar    1  UNL1        0.0161
     33 C          62.9773   90.4899   12.8821 C.3     1  UNL1        0.1087
     34 C          66.4048   94.2602    9.7140 C.3     1  UNL1        0.0000
     35 C          65.5479   93.3176   10.5060 C.3     1  UNL1        0.0000
     36 C          65.6587   93.2799   12.0015 C.3     1  UNL1        0.0001
     37 C          64.8019   92.3373   12.7935 C.3     1  UNL1        0.0019
     38 C          63.8342   91.4324   12.0901 C.3     1  UNL1        0.0227
     39 C          63.7233   91.4701   10.5946 C.3     1  UNL1        0.0019
     40 C          64.5802   92.4127    9.8026 C.3     1  UNL1        0.0001
@<TRIPOS>BOND
     1    35    34    1
     2    35    36    1
     3    36    37    1
     4    37    38    1
     5    38    33    1
     6    33     1    1
     7     1     2   ar
     8     2    10    1
     9    10    11    1
    10    11    12    1
    11    12    13    1
    12    13    14    1
    13    14    15    1
    14    15    16    1
    15    16    17    1
    16    18    17    1
    17     2     3   ar
    18     3     4   ar
    19     4     5   ar
    20     5     6   ar
    21     6    19    1
    22    19    20   ar
    23    20    21   ar
    24    21    22   ar
    25    22    23    2
    26    22    24   ar
    27     6     7   ar
    28     7     8   ar
    29     8    26    1
    30    26    27   ar
    31    27    28   ar
    32    28    29   ar
    33    29    30   ar
    34    30    31    1
    35    30    32   ar
    36     8     9   ar
    37    38    39    1
    38    39    40    1
    39    40    35    1
    40     9     1   ar
    41    18    10    1
    42     9     4   ar
    43    18    14    1
    44    24    19   ar
    45    32    26   ar
    46    20    25    1
@<TRIPOS>MOLECULE
*****
 40 46 0 0 0
SMALL
GASTEIGER

@<TRIPOS>ATOM
      1 N          62.5293   86.4143   12.0645 N.ar    1  UNL1       -0.2984
      2 C          63.3981   85.2925   12.5509 C.ar    1  UNL1        0.2013
      3 N          64.4022   85.8650   13.5069 N.ar    1  UNL1       -0.2135
      4 C          64.1540   87.3406   13.6114 C.ar    1  UNL1        0.1030
      5 C          64.8324   88.4190   14.4031 C.ar    1  UNL1        0.0429
      6 C          64.3533   89.8370   14.3033 C.ar    1  UNL1        0.1194
      7 N          63.1957   90.1764   13.4118 N.ar    1  UNL1       -0.2406
      8 C          62.5173   89.0980   12.6201 C.ar    1  UNL1        0.1001
      9 C          62.9964   87.6801   12.7199 C.ar    1  UNL1        0.0977
     10 N          63.2830   83.8513   12.1514 N.pl3   1  UNL1       -0.2762
     11 C          63.8646   83.3851   10.8497 C.3     1  UNL1        0.1256
     12 C          63.7495   81.9438   10.4502 C.3     1  UNL1        0.1635
     13 O          63.0528   80.9688   11.3524 O.3     1  UNL1       -0.3527
     14 C          62.4712   81.4351   12.6541 C.3     1  UNL1        0.1333
     15 C          61.7337   80.7104   13.7408 C.3     1  UNL1        0.0313
     16 C          61.3930   81.7036   14.8119 C.3     1  UNL1        0.0043
     17 C          61.9200   83.0423   14.3871 C.3     1  UNL1        0.0224
     18 C          62.5863   82.8763   13.0536 C.3     1  UNL1        0.1026
     19 C          65.0318   90.9153   15.0950 C.ar    1  UNL1        0.1937
     20 N          64.4647   91.6200   16.2916 N.ar    1  UNL1       -0.1955
     21 O          65.4789   92.6185   16.7652 O.2     1  UNL1       -0.3201
     22 C          66.6728   92.5310   15.8615 C.ar    1  UNL1        0.4608
     23 O          67.9234   93.3519   15.9708 O.2     1  UNL1       -0.2188
     24 N          66.3965   91.4783   14.8292 N.ar    1  UNL1       -0.1516
     25 H          63.5818   91.4559   16.6952 H       1  UNL1        0.2093
     26 C          61.3597   89.4376   11.7287 C.ar    1  UNL1        0.0391
     27 C          60.1002   90.0010   12.3169 C.ar    1  UNL1        0.1004
     28 N          58.9425   90.3406   11.4254 N.ar    1  UNL1       -0.2414
     29 C          59.0445   90.1168    9.9458 C.ar    1  UNL1        0.1102
     30 C          60.3042   89.5533    9.3575 C.ar    1  UNL1        0.0769
     31 CL         60.4062   89.3295    7.8778 Cl      1  UNL1       -0.0806
     32 C          61.4617   89.2138   10.2490 C.ar    1  UNL1        0.0161
     33 C          61.3928   86.2919   11.0932 C.3     1  UNL1        0.1087
     34 C          62.4485   84.5770    5.4413 C.3     1  UNL1        0.0000
     35 C          62.1846   85.0057    6.8543 C.3     1  UNL1        0.0000
     36 C          60.8076   85.4392    7.2617 C.3     1  UNL1        0.0001
     37 C          60.5437   85.8679    8.6747 C.3     1  UNL1        0.0019
     38 C          61.6567   85.8632    9.6803 C.3     1  UNL1        0.0227
     39 C          63.0337   85.4297    9.2728 C.3     1  UNL1        0.0019
     40 C          63.2977   85.0009    7.8598 C.3     1  UNL1        0.0001
@<TRIPOS>BOND
     1    35    34    1
     2    35    36    1
     3    36    37    1
     4    37    38    1
     5    38    33    1
     6    33     1    1
     7     1     2   ar
     8     2    10    1
     9    10    11    1
    10    11    12    1
    11    12    13    1
    12    13    14    1
    13    14    15    1
    14    15    16    1
    15    16    17    1
    16    18    17    1
    17     2     3   ar
    18     3     4   ar
    19     4     5   ar
    20     5     6   ar
    21     6    19    1
    22    19    20   ar
    23    20    21   ar
    24    21    22   ar
    25    22    23    2
    26    22    24   ar
    27     6     7   ar
    28     7     8   ar
    29     8    26    1
    30    26    27   ar
    31    27    28   ar
    32    28    29   ar
    33    29    30   ar
    34    30    31    1
    35    30    32   ar
    36     8     9   ar
    37    38    39    1
    38    39    40    1
    39    40    35    1
    40     9     1   ar
    41    18    10    1
    42     9     4   ar
    43    18    14    1
    44    24    19   ar
    45    32    26   ar
    46    20    25    1
@<TRIPOS>MOLECULE
*****
 40 46 0 0 0
SMALL
GASTEIGER

@<TRIPOS>ATOM
      1 N          63.6266   88.9009   12.8667 N.ar    1  UNL1       -0.2984
      2 C          63.7779   90.3782   13.0786 C.ar    1  UNL1        0.2013
      3 N          62.9501   91.0818   12.0444 N.ar    1  UNL1       -0.2135
      4 C          62.2873   90.0396   11.1934 C.ar    1  UNL1        0.1030
      5 C          61.3569   90.1436   10.0213 C.ar    1  UNL1        0.0429
      6 C          60.8448   88.8999    9.3575 C.ar    1  UNL1        0.1194
      7 N          61.2630   87.5519    9.8657 N.ar    1  UNL1       -0.2406
      8 C          62.1932   87.4479   11.0378 C.ar    1  UNL1        0.1001
      9 C          62.7054   88.6917   11.7016 C.ar    1  UNL1        0.0977
     10 N          64.6107   91.0362   14.1385 N.pl3   1  UNL1       -0.2762
     11 C          64.0375   91.2707   15.5047 C.3     1  UNL1        0.1256
     12 C          64.8703   91.9287   16.5646 C.3     1  UNL1        0.1635
     13 O          66.2763   92.3521   16.2584 O.3     1  UNL1       -0.3527
     14 C          66.8495   92.1175   14.8922 C.3     1  UNL1        0.1333
     15 C          68.1936   92.4246   14.3014 C.3     1  UNL1        0.0313
     16 C          68.1916   91.9564   12.8764 C.3     1  UNL1        0.0043
     17 C          66.8461   91.3600   12.5865 C.3     1  UNL1        0.0224
     18 C          66.0167   91.4596   13.8323 C.3     1  UNL1        0.1026
     19 C          59.9145   89.0040    8.1854 C.ar    1  UNL1        0.1937
     20 N          58.9058   87.9759    7.7664 N.ar    1  UNL1       -0.1955
     21 O          58.1975   88.4910    6.5486 O.2     1  UNL1       -0.3201
     22 C          58.7683   89.8374    6.2150 C.ar    1  UNL1        0.4608
     23 O          58.3513   90.7130    5.0708 O.2     1  UNL1       -0.2188
     24 N          59.8295   90.1545    7.2267 N.ar    1  UNL1       -0.1516
     25 H          58.7381   87.1144    8.2123 H       1  UNL1        0.2093
     26 C          62.6113   86.1000   11.5460 C.ar    1  UNL1        0.0391
     27 C          62.2230   85.6661   12.9283 C.ar    1  UNL1        0.1004
     28 N          62.6410   84.3181   13.4366 N.ar    1  UNL1       -0.2414
     29 C          63.4475   83.4041   12.5625 C.ar    1  UNL1        0.1102
     30 C          63.8360   83.8380   11.1801 C.ar    1  UNL1        0.0769
     31 CL         64.6425   82.9240   10.3060 Cl      1  UNL1       -0.0806
     32 C          63.4179   85.1859   10.6719 C.ar    1  UNL1        0.0161
     33 C          64.2817   87.8224   13.6776 C.3     1  UNL1        0.1087
     34 C          62.5177   86.8249   19.3250 C.3     1  UNL1        0.0000
     35 C          62.9587   87.0743   17.9132 C.3     1  UNL1        0.0000
     36 C          63.4757   85.9408   17.0776 C.3     1  UNL1        0.0001
     37 C          63.9167   86.1902   15.6658 C.3     1  UNL1        0.0019
     38 C          63.8407   87.5730   15.0894 C.3     1  UNL1        0.0227
     39 C          63.3237   88.7065   15.9250 C.3     1  UNL1        0.0019
     40 C          62.8827   88.4571   17.3368 C.3     1  UNL1        0.0001
@<TRIPOS>BOND
     1    35    34    1
     2    35    36    1
     3    36    37    1
     4    37    38    1
     5    38    33    1
     6    33     1    1
     7     1     2   ar
     8     2    10    1
     9    10    11    1
    10    11    12    1
    11    12    13    1
    12    13    14    1
    13    14    15    1
    14    15    16    1
    15    16    17    1
    16    18    17    1
    17     2     3   ar
    18     3     4   ar
    19     4     5   ar
    20     5     6   ar
    21     6    19    1
    22    19    20   ar
    23    20    21   ar
    24    21    22   ar
    25    22    23    2
    26    22    24   ar
    27     6     7   ar
    28     7     8   ar
    29     8    26    1
    30    26    27   ar
    31    27    28   ar
    32    28    29   ar
    33    29    30   ar
    34    30    31    1
    35    30    32   ar
    36     8     9   ar
    37    38    39    1
    38    39    40    1
    39    40    35    1
    40     9     1   ar
    41    18    10    1
    42     9     4   ar
    43    18    14    1
    44    24    19   ar
    45    32    26   ar
    46    20    25    1
