@<TRIPOS>MOLECULE
*****
 26 28 0 0 0
SMALL
GASTEIGER

@<TRIPOS>ATOM
      1 C          65.1698   92.4827   11.3448 C.ar    1  UNL1        0.1389
      2 C          64.2387   91.4985   10.7011 C.ar    1  UNL1        0.0369
      3 C          63.4830   90.5170   11.5472 C.ar    1  UNL1        0.0074
      4 C          63.6584   90.5198   13.0369 C.ar    1  UNL1        0.0369
      5 C          64.5895   91.5041   13.6806 C.ar    1  UNL1        0.1389
      6 C          65.3452   92.4855   12.8346 C.ar    1  UNL1        0.0617
      7 C          62.5519   89.5328   10.9035 C.ar    1  UNL1        0.0177
      8 C          61.6688   89.9658    9.7710 C.ar    1  UNL1        0.0783
      9 N          60.7378   88.9816    9.1273 N.ar    1  UNL1       -0.2921
     10 C          59.8546   89.4147    7.9948 C.3     1  UNL1        0.1336
     11 C          60.6898   87.5643    9.6161 C.ar    1  UNL1        0.2624
     12 O          59.7587   86.5800    8.9724 O.2     1  UNL1       -0.2669
     13 C          61.5729   87.1312   10.7486 C.ar    1  UNL1        0.0753
     14 C          61.5249   85.7139   11.2374 C.ar    1  UNL1        0.1036
     15 N          62.4080   85.2808   12.3699 N.ar    1  UNL1       -0.2422
     16 C          63.3391   86.2651   13.0136 C.ar    1  UNL1        0.0989
     17 C          63.3871   87.6824   12.5248 C.ar    1  UNL1        0.0209
     18 C          62.5040   88.1154   11.3923 C.ar    1  UNL1        0.0091
     19 C          67.2558   93.0857    9.9185 C.3     1  UNL1        0.2525
     20 O          65.9254   93.4642   10.4989 O.3     1  UNL1       -0.4716
     21 O          64.7649   91.5068   15.1703 O.3     1  UNL1       -0.4716
     22 C          63.7380   90.8543   16.0476 C.3     1  UNL1        0.2525
     23 C          66.2763   93.4697   13.4783 C.3     1  UNL1        0.1054
     24 N          67.5417   92.9917   14.1266 N.3     1  UNL1       -0.2664
     25 C          68.3600   91.9179   13.4729 C.3     1  UNL1        0.0899
     26 C          67.9887   93.5874   15.4286 C.3     1  UNL1        0.0899
@<TRIPOS>BOND
     1    19    20    1
     2    20     1    1
     3     1     2   ar
     4     2     3   ar
     5     3     7    1
     6     7     8   ar
     7     8     9   ar
     8     9    10    1
     9     9    11   ar
    10    11    12    2
    11    11    13   ar
    12    13    14   ar
    13    14    15   ar
    14    15    16   ar
    15    16    17   ar
    16    17    18   ar
    17     3     4   ar
    18     4     5   ar
    19     5    21    1
    20    21    22    1
    21     5     6   ar
    22     6    23    1
    23    23    24    1
    24    24    25    1
    25    24    26    1
    26     6     1   ar
    27    18     7   ar
    28    18    13   ar
@<TRIPOS>MOLECULE
*****
 26 28 0 0 0
SMALL
GASTEIGER

@<TRIPOS>ATOM
      1 C          64.5940   91.4960   13.7009 C.ar    1  UNL1        0.1389
      2 C          63.6644   90.5120   13.0545 C.ar    1  UNL1        0.0369
      3 C          63.4875   90.5143   11.5649 C.ar    1  UNL1        0.0074
      4 C          64.2401   91.5005   10.7218 C.ar    1  UNL1        0.0369
      5 C          65.1697   92.4845   11.3681 C.ar    1  UNL1        0.1389
      6 C          65.3466   92.4822   12.8576 C.ar    1  UNL1        0.0617
      7 C          62.5580   89.5304   10.9186 C.ar    1  UNL1        0.0177
      8 C          61.6753   89.9647    9.7862 C.ar    1  UNL1        0.0783
      9 N          60.7458   88.9807    9.1399 N.ar    1  UNL1       -0.2921
     10 C          59.8631   89.4151    8.0075 C.3     1  UNL1        0.1336
     11 C          60.6989   87.5624    9.6259 C.ar    1  UNL1        0.2624
     12 O          59.7693   86.5785    8.9795 O.2     1  UNL1       -0.2669
     13 C          61.5816   87.1280   10.7583 C.ar    1  UNL1        0.0753
     14 C          61.5347   85.7098   11.2443 C.ar    1  UNL1        0.1036
     15 N          62.4173   85.2754   12.3766 N.ar    1  UNL1       -0.2422
     16 C          63.3469   86.2594   13.0230 C.ar    1  UNL1        0.0989
     17 C          63.3938   87.6777   12.5370 C.ar    1  UNL1        0.0209
     18 C          62.5111   88.1120   11.4046 C.ar    1  UNL1        0.0091
     19 C          63.7254   90.8733   16.0688 C.3     1  UNL1        0.2525
     20 O          64.7709   91.4938   15.1903 O.3     1  UNL1       -0.4716
     21 O          65.9223   93.4707   10.5249 O.3     1  UNL1       -0.4716
     22 C          67.2300   93.0810    9.9021 C.3     1  UNL1        0.2525
     23 C          66.2761   93.4662   13.5040 C.3     1  UNL1        0.1054
     24 N          67.5441   92.9888   14.1479 N.3     1  UNL1       -0.2664
     25 C          68.0133   93.6086   15.4307 C.3     1  UNL1        0.0899
     26 C          68.3427   91.8916   13.5090 C.3     1  UNL1        0.0899
@<TRIPOS>BOND
     1    19    20    1
     2    20     1    1
     3     1     2   ar
     4     2     3   ar
     5     3     7    1
     6     7     8   ar
     7     8     9   ar
     8     9    10    1
     9     9    11   ar
    10    11    12    2
    11    11    13   ar
    12    13    14   ar
    13    14    15   ar
    14    15    16   ar
    15    16    17   ar
    16    17    18   ar
    17     3     4   ar
    18     4     5   ar
    19     5    21    1
    20    21    22    1
    21     5     6   ar
    22     6    23    1
    23    23    24    1
    24    24    25    1
    25    24    26    1
    26     6     1   ar
    27    18     7   ar
    28    18    13   ar
@<TRIPOS>MOLECULE
*****
 26 28 0 0 0
SMALL
GASTEIGER

@<TRIPOS>ATOM
      1 C          60.8973   89.4455    9.9036 C.ar    1  UNL1        0.1389
      2 C          61.8862   90.4808   10.3511 C.ar    1  UNL1        0.0369
      3 C          63.0100   90.0977   11.2679 C.ar    1  UNL1        0.0074
      4 C          63.1448   88.6793   11.7370 C.ar    1  UNL1        0.0369
      5 C          62.1559   87.6441   11.2895 C.ar    1  UNL1        0.1389
      6 C          61.0322   88.0271   10.3728 C.ar    1  UNL1        0.0617
      7 C          63.9989   91.1329   11.7154 C.ar    1  UNL1        0.0177
      8 C          64.7072   91.9814   10.7013 C.ar    1  UNL1        0.0783
      9 N          65.6961   93.0166   11.1489 N.ar    1  UNL1       -0.2921
     10 C          66.4045   93.8651   10.1347 C.3     1  UNL1        0.1336
     11 C          65.9767   93.2035   12.6105 C.ar    1  UNL1        0.2624
     12 O          66.9656   94.2387   13.0580 O.2     1  UNL1       -0.2669
     13 C          65.2683   92.3550   13.6246 C.ar    1  UNL1        0.0753
     14 C          65.5489   92.5418   15.0862 C.ar    1  UNL1        0.1036
     15 N          64.8406   91.6934   16.1003 N.ar    1  UNL1       -0.2422
     16 C          63.8517   90.6581   15.6528 C.ar    1  UNL1        0.0989
     17 C          63.5711   90.4713   14.1912 C.ar    1  UNL1        0.0209
     18 C          64.2794   91.3197   13.1771 C.ar    1  UNL1        0.0091
     19 C          59.9224   89.6544    7.5045 C.3     1  UNL1        0.2525
     20 O          59.7735   89.8285    8.9869 O.3     1  UNL1       -0.4716
     21 O          62.2908   86.2257   11.7587 O.3     1  UNL1       -0.4716
     22 C          63.2227   85.8942   12.8864 C.3     1  UNL1        0.2525
     23 C          60.0433   86.9919    9.9252 C.3     1  UNL1        0.1054
     24 N          60.1455   86.4021    8.5498 N.3     1  UNL1       -0.2664
     25 C          61.4376   85.7963    8.0877 C.3     1  UNL1        0.0899
     26 C          58.9557   86.4183    7.6365 C.3     1  UNL1        0.0899
@<TRIPOS>BOND
     1    19    20    1
     2    20     1    1
     3     1     2   ar
     4     2     3   ar
     5     3     7    1
     6     7     8   ar
     7     8     9   ar
     8     9    10    1
     9     9    11   ar
    10    11    12    2
    11    11    13   ar
    12    13    14   ar
    13    14    15   ar
    14    15    16   ar
    15    16    17   ar
    16    17    18   ar
    17     3     4   ar
    18     4     5   ar
    19     5    21    1
    20    21    22    1
    21     5     6   ar
    22     6    23    1
    23    23    24    1
    24    24    25    1
    25    24    26    1
    26     6     1   ar
    27    18     7   ar
    28    18    13   ar
@<TRIPOS>MOLECULE
*****
 26 28 0 0 0
SMALL
GASTEIGER

@<TRIPOS>ATOM
      1 C          62.1700   87.6306   11.3010 C.ar    1  UNL1        0.1389
      2 C          63.1539   88.6707   11.7483 C.ar    1  UNL1        0.0369
      3 C          63.0137   90.0878   11.2766 C.ar    1  UNL1        0.0074
      4 C          61.8896   90.4646   10.3577 C.ar    1  UNL1        0.0369
      5 C          60.9057   89.4244    9.9104 C.ar    1  UNL1        0.1389
      6 C          61.0459   88.0074   10.3821 C.ar    1  UNL1        0.0617
      7 C          63.9975   91.1280   11.7239 C.ar    1  UNL1        0.0177
      8 C          64.7053   91.9763   10.7093 C.ar    1  UNL1        0.0783
      9 N          65.6892   93.0165   11.1566 N.ar    1  UNL1       -0.2921
     10 C          66.3969   93.8648   10.1420 C.3     1  UNL1        0.1336
     11 C          65.9652   93.2083   12.6184 C.ar    1  UNL1        0.2624
     12 O          66.9491   94.2485   13.0657 O.2     1  UNL1       -0.2669
     13 C          65.2575   92.3599   13.6330 C.ar    1  UNL1        0.0753
     14 C          65.5336   92.5518   15.0948 C.ar    1  UNL1        0.1036
     15 N          64.8258   91.7034   16.1094 N.ar    1  UNL1       -0.2422
     16 C          63.8419   90.6632   15.6621 C.ar    1  UNL1        0.0989
     17 C          63.5658   90.4714   14.2003 C.ar    1  UNL1        0.0209
     18 C          64.2736   91.3198   13.1858 C.ar    1  UNL1        0.0091
     19 C          63.2566   85.8850   12.8890 C.3     1  UNL1        0.2525
     20 O          62.3102   86.2136   11.7727 O.3     1  UNL1       -0.4716
     21 O          59.7816   89.8013    8.9914 O.3     1  UNL1       -0.4716
     22 C          59.9461   89.6580    7.5074 C.3     1  UNL1        0.2525
     23 C          60.0621   86.9673    9.9348 C.3     1  UNL1        0.1054
     24 N          60.1543   86.3931    8.5520 N.3     1  UNL1       -0.2664
     25 C          58.9655   86.4425    7.6386 C.3     1  UNL1        0.0899
     26 C          61.4352   85.7695    8.0828 C.3     1  UNL1        0.0899
@<TRIPOS>BOND
     1    19    20    1
     2    20     1    1
     3     1     2   ar
     4     2     3   ar
     5     3     7    1
     6     7     8   ar
     7     8     9   ar
     8     9    10    1
     9     9    11   ar
    10    11    12    2
    11    11    13   ar
    12    13    14   ar
    13    14    15   ar
    14    15    16   ar
    15    16    17   ar
    16    17    18   ar
    17     3     4   ar
    18     4     5   ar
    19     5    21    1
    20    21    22    1
    21     5     6   ar
    22     6    23    1
    23    23    24    1
    24    24    25    1
    25    24    26    1
    26     6     1   ar
    27    18     7   ar
    28    18    13   ar
@<TRIPOS>MOLECULE
*****
 26 28 0 0 0
SMALL
GASTEIGER

@<TRIPOS>ATOM
      1 C          62.4375   87.8908   11.6680 C.ar    1  UNL1        0.1389
      2 C          63.4236   88.7722   12.3757 C.ar    1  UNL1        0.0369
      3 C          63.1543   90.2418   12.5102 C.ar    1  UNL1        0.0074
      4 C          61.8991   90.8298   11.9371 C.ar    1  UNL1        0.0369
      5 C          60.9130   89.9484   11.2295 C.ar    1  UNL1        0.1389
      6 C          61.1822   88.4789   11.0949 C.ar    1  UNL1        0.0617
      7 C          64.1404   91.1232   13.2179 C.ar    1  UNL1        0.0177
      8 C          64.2112   91.1174   14.7161 C.ar    1  UNL1        0.0783
      9 N          65.1973   91.9988   15.4238 N.ar    1  UNL1       -0.2921
     10 C          65.2681   91.9930   16.9222 C.3     1  UNL1        0.1336
     11 C          66.1125   92.8861   14.6332 C.ar    1  UNL1        0.2624
     12 O          67.0986   93.7675   15.3408 O.2     1  UNL1       -0.2669
     13 C          66.0417   92.8919   13.1348 C.ar    1  UNL1        0.0753
     14 C          66.9569   93.7791   12.3442 C.ar    1  UNL1        0.1036
     15 N          66.8861   93.7849   10.8459 N.ar    1  UNL1       -0.2422
     16 C          65.9000   92.9035   10.1382 C.ar    1  UNL1        0.0989
     17 C          64.9848   92.0163   10.9289 C.ar    1  UNL1        0.0209
     18 C          65.0556   92.0105   12.4271 C.ar    1  UNL1        0.0091
     19 C          63.0948   85.6166   12.7383 C.3     1  UNL1        0.2525
     20 O          62.7068   86.4213   11.5334 O.3     1  UNL1       -0.4716
     21 O          59.6577   90.5365   10.6564 O.3     1  UNL1       -0.4716
     22 C          58.6219   91.1261   11.5672 C.3     1  UNL1        0.2525
     23 C          60.1962   87.5975   10.3873 C.3     1  UNL1        0.1054
     24 N          60.3050   87.3887    8.9058 N.3     1  UNL1       -0.2664
     25 C          59.6661   88.3640    7.9620 C.3     1  UNL1        0.0899
     26 C          61.0528   86.2048    8.3682 C.3     1  UNL1        0.0899
@<TRIPOS>BOND
     1    19    20    1
     2    20     1    1
     3     1     2   ar
     4     2     3   ar
     5     3     7    1
     6     7     8   ar
     7     8     9   ar
     8     9    10    1
     9     9    11   ar
    10    11    12    2
    11    11    13   ar
    12    13    14   ar
    13    14    15   ar
    14    15    16   ar
    15    16    17   ar
    16    17    18   ar
    17     3     4   ar
    18     4     5   ar
    19     5    21    1
    20    21    22    1
    21     5     6   ar
    22     6    23    1
    23    23    24    1
    24    24    25    1
    25    24    26    1
    26     6     1   ar
    27    18     7   ar
    28    18    13   ar
@<TRIPOS>MOLECULE
*****
 26 28 0 0 0
SMALL
GASTEIGER

@<TRIPOS>ATOM
      1 C          61.0527   89.9521   11.2453 C.ar    1  UNL1        0.1389
      2 C          62.0407   90.8582   11.9183 C.ar    1  UNL1        0.0369
      3 C          63.2747   90.2852   12.5499 C.ar    1  UNL1        0.0074
      4 C          63.5208   88.8062   12.5085 C.ar    1  UNL1        0.0369
      5 C          62.5329   87.9000   11.8355 C.ar    1  UNL1        0.1389
      6 C          61.2989   88.4730   11.2040 C.ar    1  UNL1        0.0617
      7 C          64.2627   91.1914   13.2229 C.ar    1  UNL1        0.0177
      8 C          64.3789   91.1956   14.7183 C.ar    1  UNL1        0.0783
      9 N          65.3668   92.1017   15.3913 N.ar    1  UNL1       -0.2921
     10 C          65.4829   92.1059   16.8869 C.3     1  UNL1        0.1336
     11 C          66.2385   93.0037   14.5688 C.ar    1  UNL1        0.2624
     12 O          67.2265   93.9098   15.2418 O.2     1  UNL1       -0.2669
     13 C          66.1224   92.9995   13.0733 C.ar    1  UNL1        0.0753
     14 C          66.9942   93.9014   12.2508 C.ar    1  UNL1        0.1036
     15 N          66.8780   93.8972   10.7553 N.ar    1  UNL1       -0.2422
     16 C          65.8900   92.9910   10.0824 C.ar    1  UNL1        0.0989
     17 C          65.0183   92.0891   10.9049 C.ar    1  UNL1        0.0209
     18 C          65.1345   92.0933   12.4003 C.ar    1  UNL1        0.0091
     19 C          58.7387   91.1107   11.4742 C.3     1  UNL1        0.2525
     20 O          59.8187   90.5250   10.6138 O.3     1  UNL1       -0.4716
     21 O          62.7790   86.4209   11.7942 O.3     1  UNL1       -0.4716
     22 C          63.2921   85.7116   13.0122 C.3     1  UNL1        0.2525
     23 C          60.3109   87.5668   10.5310 C.3     1  UNL1        0.1054
     24 N          60.4193   87.3005    9.0588 N.3     1  UNL1       -0.2664
     25 C          61.2824   86.1792    8.5610 C.3     1  UNL1        0.0899
     26 C          59.6646   88.1555    8.0844 C.3     1  UNL1        0.0899
@<TRIPOS>BOND
     1    19    20    1
     2    20     1    1
     3     1     2   ar
     4     2     3   ar
     5     3     7    1
     6     7     8   ar
     7     8     9   ar
     8     9    10    1
     9     9    11   ar
    10    11    12    2
    11    11    13   ar
    12    13    14   ar
    13    14    15   ar
    14    15    16   ar
    15    16    17   ar
    16    17    18   ar
    17     3     4   ar
    18     4     5   ar
    19     5    21    1
    20    21    22    1
    21     5     6   ar
    22     6    23    1
    23    23    24    1
    24    24    25    1
    25    24    26    1
    26     6     1   ar
    27    18     7   ar
    28    18    13   ar
@<TRIPOS>MOLECULE
*****
 26 28 0 0 0
SMALL
GASTEIGER

@<TRIPOS>ATOM
      1 C          63.3337   83.3165   11.3966 C.ar    1  UNL1        0.1389
      2 C          62.7760   84.4342   10.5661 C.ar    1  UNL1        0.0369
      3 C          62.1314   85.6138   11.2319 C.ar    1  UNL1        0.0074
      4 C          62.0445   85.6756   12.7281 C.ar    1  UNL1        0.0369
      5 C          62.6022   84.5579   13.5586 C.ar    1  UNL1        0.1389
      6 C          63.2468   83.3784   12.8929 C.ar    1  UNL1        0.0617
      7 C          61.5737   86.7315   10.4014 C.ar    1  UNL1        0.0177
      8 C          60.6298   86.4303    9.2752 C.ar    1  UNL1        0.0783
      9 N          60.0721   87.5480    8.4448 N.ar    1  UNL1       -0.2921
     10 C          59.1281   87.2467    7.3185 C.3     1  UNL1        0.1336
     11 C          60.4583   88.9669    8.7404 C.ar    1  UNL1        0.2624
     12 O          59.9006   90.0846    7.9099 O.2     1  UNL1       -0.2669
     13 C          61.4022   89.2682    9.8666 C.ar    1  UNL1        0.0753
     14 C          61.7884   90.6871   10.1623 C.ar    1  UNL1        0.1036
     15 N          62.7323   90.9883   11.2884 N.ar    1  UNL1       -0.2422
     16 C          63.2900   89.8706   12.1189 C.ar    1  UNL1        0.0989
     17 C          62.9038   88.4517   11.8233 C.ar    1  UNL1        0.0209
     18 C          61.9599   88.1505   10.6971 C.ar    1  UNL1        0.0091
     19 C          63.1590   80.9273   10.3913 C.3     1  UNL1        0.2525
     20 O          63.9783   82.1370   10.7309 O.3     1  UNL1       -0.4716
     21 O          62.5153   84.6198   15.0548 O.3     1  UNL1       -0.4716
     22 C          63.5464   85.3802   15.8351 C.3     1  UNL1        0.2525
     23 C          63.8045   82.2607   13.7234 C.3     1  UNL1        0.1054
     24 N          62.9653   81.0520   14.0148 N.3     1  UNL1       -0.2664
     25 C          63.5883   79.6875   14.0097 C.3     1  UNL1        0.0899
     26 C          61.5032   81.2078   14.3113 C.3     1  UNL1        0.0899
@<TRIPOS>BOND
     1    19    20    1
     2    20     1    1
     3     1     2   ar
     4     2     3   ar
     5     3     7    1
     6     7     8   ar
     7     8     9   ar
     8     9    10    1
     9     9    11   ar
    10    11    12    2
    11    11    13   ar
    12    13    14   ar
    13    14    15   ar
    14    15    16   ar
    15    16    17   ar
    16    17    18   ar
    17     3     4   ar
    18     4     5   ar
    19     5    21    1
    20    21    22    1
    21     5     6   ar
    22     6    23    1
    23    23    24    1
    24    24    25    1
    25    24    26    1
    26     6     1   ar
    27    18     7   ar
    28    18    13   ar
@<TRIPOS>MOLECULE
*****
 26 28 0 0 0
SMALL
GASTEIGER

@<TRIPOS>ATOM
      1 C          63.5229   83.2238   11.6962 C.ar    1  UNL1        0.1389
      2 C          63.3039   84.6187   11.1898 C.ar    1  UNL1        0.0369
      3 C          62.8208   85.6885   12.1238 C.ar    1  UNL1        0.0074
      4 C          62.5568   85.3634   13.5641 C.ar    1  UNL1        0.0369
      5 C          62.7759   83.9685   14.0705 C.ar    1  UNL1        0.1389
      6 C          63.2589   82.8988   13.1366 C.ar    1  UNL1        0.0617
      7 C          62.6018   87.0833   11.6174 C.ar    1  UNL1        0.0177
      8 C          63.2832   88.2398   12.2868 C.ar    1  UNL1        0.0783
      9 N          63.0641   89.6347   11.7804 N.ar    1  UNL1       -0.2921
     10 C          63.7456   90.7913   12.4498 C.3     1  UNL1        0.1336
     11 C          62.1638   89.8730   10.6046 C.ar    1  UNL1        0.2624
     12 O          61.9447   91.2678   10.0982 O.2     1  UNL1       -0.2669
     13 C          61.4823   88.7164    9.9352 C.ar    1  UNL1        0.0753
     14 C          60.5819   88.9547    8.7594 C.ar    1  UNL1        0.1036
     15 N          59.9006   87.7982    8.0900 N.ar    1  UNL1       -0.2422
     16 C          60.1196   86.4033    8.5964 C.ar    1  UNL1        0.0989
     17 C          61.0200   86.1650    9.7722 C.ar    1  UNL1        0.0209
     18 C          61.7014   87.3216   10.4416 C.ar    1  UNL1        0.0091
     19 C          63.0422   81.1403   10.2205 C.3     1  UNL1        0.2525
     20 O          64.0059   82.1541   10.7623 O.3     1  UNL1       -0.4716
     21 O          62.5118   83.6435   15.5109 O.3     1  UNL1       -0.4716
     22 C          62.5385   84.7321   16.5425 C.3     1  UNL1        0.2525
     23 C          63.4779   81.5039   13.6430 C.3     1  UNL1        0.1054
     24 N          62.3498   80.5153   13.6293 N.3     1  UNL1       -0.2664
     25 C          60.9947   80.9167   14.1317 C.3     1  UNL1        0.0899
     26 C          62.5770   79.1253   13.1132 C.3     1  UNL1        0.0899
@<TRIPOS>BOND
     1    19    20    1
     2    20     1    1
     3     1     2   ar
     4     2     3   ar
     5     3     7    1
     6     7     8   ar
     7     8     9   ar
     8     9    10    1
     9     9    11   ar
    10    11    12    2
    11    11    13   ar
    12    13    14   ar
    13    14    15   ar
    14    15    16   ar
    15    16    17   ar
    16    17    18   ar
    17     3     4   ar
    18     4     5   ar
    19     5    21    1
    20    21    22    1
    21     5     6   ar
    22     6    23    1
    23    23    24    1
    24    24    25    1
    25    24    26    1
    26     6     1   ar
    27    18     7   ar
    28    18    13   ar
@<TRIPOS>MOLECULE
*****
 26 28 0 0 0
SMALL
GASTEIGER

@<TRIPOS>ATOM
      1 C          63.3454   88.3305   12.4725 C.ar    1  UNL1        0.1389
      2 C          64.1074   89.6169   12.5928 C.ar    1  UNL1        0.0369
      3 C          63.9228   90.6966   11.5678 C.ar    1  UNL1        0.0074
      4 C          62.9763   90.4898   10.4227 C.ar    1  UNL1        0.0369
      5 C          62.2143   89.2034   10.3025 C.ar    1  UNL1        0.1389
      6 C          62.3988   88.1237   11.3273 C.ar    1  UNL1        0.0617
      7 C          64.6849   91.9830   11.6881 C.ar    1  UNL1        0.0177
      8 C          64.7648   92.9195   10.5192 C.ar    1  UNL1        0.0783
      9 N          65.5268   94.2059   10.6394 N.ar    1  UNL1       -0.2921
     10 C          65.6066   95.1424    9.4704 C.3     1  UNL1        0.1336
     11 C          66.2089   94.5558   11.9287 C.ar    1  UNL1        0.2624
     12 O          66.9709   95.8422   12.0490 O.2     1  UNL1       -0.2669
     13 C          66.1290   93.6193   13.0977 C.ar    1  UNL1        0.0753
     14 C          66.8112   93.9692   14.3870 C.ar    1  UNL1        0.1036
     15 N          66.7313   93.0327   15.5560 N.ar    1  UNL1       -0.2422
     16 C          65.9693   91.7463   15.4357 C.ar    1  UNL1        0.0989
     17 C          65.2871   91.3964   14.1464 C.ar    1  UNL1        0.0209
     18 C          65.3670   92.3329   12.9775 C.ar    1  UNL1        0.0091
     19 C          64.3670   87.5079   14.7151 C.3     1  UNL1        0.2525
     20 O          63.5298   87.2509   13.4973 O.3     1  UNL1       -0.4716
     21 O          61.2678   88.9966    9.1573 O.3     1  UNL1       -0.4716
     22 C          59.8409   89.4442    9.2735 C.3     1  UNL1        0.2525
     23 C          61.6368   86.8373   11.2070 C.3     1  UNL1        0.1054
     24 N          62.2678   85.6514   10.5396 N.3     1  UNL1       -0.2664
     25 C          62.4919   85.6567    9.0564 C.3     1  UNL1        0.0899
     26 C          62.6748   84.4602   11.3553 C.3     1  UNL1        0.0899
@<TRIPOS>BOND
     1    19    20    1
     2    20     1    1
     3     1     2   ar
     4     2     3   ar
     5     3     7    1
     6     7     8   ar
     7     8     9   ar
     8     9    10    1
     9     9    11   ar
    10    11    12    2
    11    11    13   ar
    12    13    14   ar
    13    14    15   ar
    14    15    16   ar
    15    16    17   ar
    16    17    18   ar
    17     3     4   ar
    18     4     5   ar
    19     5    21    1
    20    21    22    1
    21     5     6   ar
    22     6    23    1
    23    23    24    1
    24    24    25    1
    25    24    26    1
    26     6     1   ar
    27    18     7   ar
    28    18    13   ar
