@<TRIPOS>MOLECULE
*****
 11 11 0 0 0
SMALL
GASTEIGER

@<TRIPOS>ATOM
      1 C          63.7706   89.3169   15.5607 C.ar    1  UNL1       -0.0027
      2 C          64.3440   88.4319   14.4940 C.ar    1  UNL1        0.0178
      3 C          64.3112   86.9413   14.6585 C.ar    1  UNL1        0.0996
      4 N          63.7050   86.3358   15.8897 N.ar    1  UNL1       -0.2325
      5 C          63.1316   87.2208   16.9564 C.ar    1  UNL1        0.1381
      6 CL         62.5254   86.6153   18.1876 Cl      1  UNL1       -0.0613
      7 C          63.1644   88.7114   16.7919 C.ar    1  UNL1        0.0279
      8 N          63.5545   91.6981   16.5773 N.3     1  UNL1       -0.3175
      9 C          63.8034   90.8075   15.3962 C.3     1  UNL1        0.0923
     10 H          63.6145   92.6738   16.2860 H       1  UNL1        0.1192
     11 H          64.2549   91.5140   17.2955 H       1  UNL1        0.1192
@<TRIPOS>BOND
     1     8     9    1
     2     9     1    1
     3     1     2   ar
     4     2     3   ar
     5     3     4   ar
     6     4     5   ar
     7     5     6    1
     8     5     7   ar
     9     7     1   ar
    10     8    10    1
    11     8    11    1
@<TRIPOS>MOLECULE
*****
 11 11 0 0 0
SMALL
GASTEIGER

@<TRIPOS>ATOM
      1 C          63.5640   83.1907   12.3036 C.ar    1  UNL1       -0.0027
      2 C          64.2518   83.8622   13.4551 C.ar    1  UNL1        0.0178
      3 C          63.8337   83.5531   14.8621 C.ar    1  UNL1        0.0996
      4 N          62.7278   82.5725   15.1177 N.ar    1  UNL1       -0.2325
      5 C          62.0400   81.9010   13.9662 C.ar    1  UNL1        0.1381
      6 CL         60.9340   80.9204   14.2217 Cl      1  UNL1       -0.0613
      7 C          62.4581   82.2101   12.5592 C.ar    1  UNL1        0.0279
      8 N          64.7557   82.4878   10.1046 N.3     1  UNL1       -0.3175
      9 C          63.9820   83.4998   10.8966 C.3     1  UNL1        0.0923
     10 H          64.9542   82.8619    9.1767 H       1  UNL1        0.1192
     11 H          64.2063   81.6330   10.0163 H       1  UNL1        0.1192
@<TRIPOS>BOND
     1     8     9    1
     2     9     1    1
     3     1     2   ar
     4     2     3   ar
     5     3     4   ar
     6     4     5   ar
     7     5     6    1
     8     5     7   ar
     9     7     1   ar
    10     8    10    1
    11     8    11    1
@<TRIPOS>MOLECULE
*****
 11 11 0 0 0
SMALL
GASTEIGER

@<TRIPOS>ATOM
      1 C          63.3098   84.9822   15.7444 C.ar    1  UNL1       -0.0027
      2 C          64.4878   85.1521   14.8315 C.ar    1  UNL1        0.0178
      3 C          64.7431   84.1524   13.7427 C.ar    1  UNL1        0.0996
      4 N          63.8205   82.9829   13.5668 N.ar    1  UNL1       -0.2325
      5 C          62.6425   82.8131   14.4798 C.ar    1  UNL1        0.1381
      6 CL         61.7198   81.6435   14.3040 Cl      1  UNL1       -0.0613
      7 C          62.3872   83.8127   15.5686 C.ar    1  UNL1        0.0279
      8 N          61.6484   86.2847   17.2588 N.3     1  UNL1       -0.3175
      9 C          63.0545   85.9819   16.8332 C.3     1  UNL1        0.0923
     10 H          61.6612   86.9813   18.0038 H       1  UNL1        0.1192
     11 H          61.2049   85.4314   17.5988 H       1  UNL1        0.1192
@<TRIPOS>BOND
     1     8     9    1
     2     9     1    1
     3     1     2   ar
     4     2     3   ar
     5     3     4   ar
     6     4     5   ar
     7     5     6    1
     8     5     7   ar
     9     7     1   ar
    10     8    10    1
    11     8    11    1
@<TRIPOS>MOLECULE
*****
 11 11 0 0 0
SMALL
GASTEIGER

@<TRIPOS>ATOM
      1 C          60.7019   86.8428    9.1178 C.ar    1  UNL1       -0.0027
      2 C          60.8500   88.3134    9.3736 C.ar    1  UNL1        0.0178
      3 C          61.6322   88.7932   10.5602 C.ar    1  UNL1        0.0996
      4 N          62.2664   87.8025   11.4909 N.ar    1  UNL1       -0.2325
      5 C          62.1184   86.3320   11.2350 C.ar    1  UNL1        0.1381
      6 CL         62.7526   85.3412   12.1658 Cl      1  UNL1       -0.0613
      7 C          61.3361   85.8521   10.0485 C.ar    1  UNL1        0.0279
      8 N          58.4625   86.6967    7.8088 N.3     1  UNL1       -0.3175
      9 C          59.9197   86.3629    7.9313 C.3     1  UNL1        0.0923
     10 H          58.0925   86.2936    6.9480 H       1  UNL1        0.1192
     11 H          58.3464   87.7098    7.7871 H       1  UNL1        0.1192
@<TRIPOS>BOND
     1     8     9    1
     2     9     1    1
     3     1     2   ar
     4     2     3   ar
     5     3     4   ar
     6     4     5   ar
     7     5     6    1
     8     5     7   ar
     9     7     1   ar
    10     8    10    1
    11     8    11    1
@<TRIPOS>MOLECULE
*****
 11 11 0 0 0
SMALL
GASTEIGER

@<TRIPOS>ATOM
      1 C          65.1873   91.3554   14.3214 C.ar    1  UNL1       -0.0027
      2 C          66.6249   91.4709   14.7337 C.ar    1  UNL1        0.0178
      3 C          67.6356   92.0356   13.7800 C.ar    1  UNL1        0.0996
      4 N          67.2088   92.4848   12.4139 N.ar    1  UNL1       -0.2325
      5 C          65.7712   92.3692   12.0016 C.ar    1  UNL1        0.1381
      6 CL         65.3443   92.8183   10.6355 Cl      1  UNL1       -0.0613
      7 C          64.7605   91.8045   12.9553 C.ar    1  UNL1        0.0279
      8 N          63.6539   91.6339   16.4001 N.3     1  UNL1       -0.3175
      9 C          64.1766   90.7907   15.2751 C.3     1  UNL1        0.0923
     10 H          62.9807   91.0949   16.9447 H       1  UNL1        0.1192
     11 H          63.1976   92.4631   16.0199 H       1  UNL1        0.1192
@<TRIPOS>BOND
     1     8     9    1
     2     9     1    1
     3     1     2   ar
     4     2     3   ar
     5     3     4   ar
     6     4     5   ar
     7     5     6    1
     8     5     7   ar
     9     7     1   ar
    10     8    10    1
    11     8    11    1
@<TRIPOS>MOLECULE
*****
 11 11 0 0 0
SMALL
GASTEIGER

@<TRIPOS>ATOM
      1 C          62.2630   81.7465   13.4144 C.ar    1  UNL1       -0.0027
      2 C          62.4205   82.8950   14.3663 C.ar    1  UNL1        0.0178
      3 C          63.1727   84.1219   13.9433 C.ar    1  UNL1        0.0996
      4 N          63.7674   84.2003   12.5684 N.ar    1  UNL1       -0.2325
      5 C          63.6098   83.0518   11.6166 C.ar    1  UNL1        0.1381
      6 CL         64.2045   83.1301   10.2417 Cl      1  UNL1       -0.0613
      7 C          62.8576   81.8249   12.0396 C.ar    1  UNL1        0.0279
      8 N          60.0812   80.6309   14.2777 N.3     1  UNL1       -0.3175
      9 C          61.5108   80.5196   13.8374 C.3     1  UNL1        0.0923
     10 H          59.7295   79.7066   14.5276 H       1  UNL1        0.1192
     11 H          59.5200   81.0139   13.5169 H       1  UNL1        0.1192
@<TRIPOS>BOND
     1     8     9    1
     2     9     1    1
     3     1     2   ar
     4     2     3   ar
     5     3     4   ar
     6     4     5   ar
     7     5     6    1
     8     5     7   ar
     9     7     1   ar
    10     8    10    1
    11     8    11    1
@<TRIPOS>MOLECULE
*****
 11 11 0 0 0
SMALL
GASTEIGER

@<TRIPOS>ATOM
      1 C          65.0676   91.2154   13.9310 C.ar    1  UNL1       -0.0027
      2 C          64.9806   91.9288   12.6145 C.ar    1  UNL1        0.0178
      3 C          65.8308   93.1379   12.3590 C.ar    1  UNL1        0.0996
      4 N          66.7680   93.6336   13.4201 N.ar    1  UNL1       -0.2325
      5 C          66.8550   92.9201   14.7366 C.ar    1  UNL1        0.1381
      6 CL         67.7922   93.4158   15.7978 Cl      1  UNL1       -0.0613
      7 C          66.0048   91.7111   14.9921 C.ar    1  UNL1        0.0279
      8 N          62.7226   90.1301   14.2012 N.3     1  UNL1       -0.3175
      9 C          64.2174   90.0063   14.1865 C.3     1  UNL1        0.0923
     10 H          62.3077   89.2172   14.3882 H       1  UNL1        0.1192
     11 H          62.4007   90.4707   13.2952 H       1  UNL1        0.1192
@<TRIPOS>BOND
     1     8     9    1
     2     9     1    1
     3     1     2   ar
     4     2     3   ar
     5     3     4   ar
     6     4     5   ar
     7     5     6    1
     8     5     7   ar
     9     7     1   ar
    10     8    10    1
    11     8    11    1
@<TRIPOS>MOLECULE
*****
 11 11 0 0 0
SMALL
GASTEIGER

@<TRIPOS>ATOM
      1 C          60.5303   86.9259    9.1103 C.ar    1  UNL1       -0.0027
      2 C          61.5426   86.1775    9.9258 C.ar    1  UNL1        0.0178
      3 C          62.1527   86.8190   11.1366 C.ar    1  UNL1        0.0996
      4 N          61.7506   88.2089   11.5320 N.ar    1  UNL1       -0.2325
      5 C          60.7383   88.9574   10.7165 C.ar    1  UNL1        0.1381
      6 CL         60.3362   90.3474   11.1118 Cl      1  UNL1       -0.0613
      7 C          60.1282   88.3158    9.5056 C.ar    1  UNL1        0.0279
      8 N          58.4701   86.5042    7.5846 N.3     1  UNL1       -0.3175
      9 C          59.9201   86.2844    7.8995 C.3     1  UNL1        0.0923
     10 H          58.2265   85.9977    6.7334 H       1  UNL1        0.1192
     11 H          58.2991   87.5005    7.4482 H       1  UNL1        0.1192
@<TRIPOS>BOND
     1     8     9    1
     2     9     1    1
     3     1     2   ar
     4     2     3   ar
     5     3     4   ar
     6     4     5   ar
     7     5     6    1
     8     5     7   ar
     9     7     1   ar
    10     8    10    1
    11     8    11    1
@<TRIPOS>MOLECULE
*****
 11 11 0 0 0
SMALL
GASTEIGER

@<TRIPOS>ATOM
      1 C          62.8746   83.9498   12.3982 C.ar    1  UNL1       -0.0027
      2 C          63.6151   84.3823   13.6289 C.ar    1  UNL1        0.0178
      3 C          63.9483   83.3806   14.6945 C.ar    1  UNL1        0.0996
      4 N          63.5409   81.9465   14.5296 N.ar    1  UNL1       -0.2325
      5 C          62.8003   81.5140   13.2989 C.ar    1  UNL1        0.1381
      6 CL         62.3929   80.0798   13.1339 Cl      1  UNL1       -0.0613
      7 C          62.4672   82.5157   12.2333 C.ar    1  UNL1        0.0279
      8 N          61.5693   86.0571   11.6200 N.3     1  UNL1       -0.3175
      9 C          62.5414   84.9515   11.3326 C.3     1  UNL1        0.0923
     10 H          61.4621   86.6400   10.7899 H       1  UNL1        0.1192
     11 H          61.9190   86.6253   12.3916 H       1  UNL1        0.1192
@<TRIPOS>BOND
     1     8     9    1
     2     9     1    1
     3     1     2   ar
     4     2     3   ar
     5     3     4   ar
     6     4     5   ar
     7     5     6    1
     8     5     7   ar
     9     7     1   ar
    10     8    10    1
    11     8    11    1
