@<TRIPOS>MOLECULE
*****
 33 36 0 0 0
SMALL
GASTEIGER

@<TRIPOS>ATOM
      1 N          64.4983   91.6878   12.0340 N.ar    1  UNL1       -0.2570
      2 C          65.8223   92.3815   12.1595 C.ar    1  UNL1        0.1213
      3 C          66.4802   92.5048   13.5019 C.ar    1  UNL1        0.0935
      4 C          65.8140   91.9343   14.7188 C.ar    1  UNL1        0.2674
      5 O          66.4719   92.0576   16.0612 O.2     1  UNL1       -0.2667
      6 N          64.4900   91.2406   14.5933 N.ar    1  UNL1       -0.2428
      7 C          63.8321   91.1174   13.2509 C.ar    1  UNL1        0.3357
      8 O          62.5081   90.4237   13.1254 O.2     1  UNL1       -0.2461
      9 N          66.4885   92.9519   10.9426 N.pl3   1  UNL1       -0.2930
     10 C          67.6315   92.2220   10.3017 C.3     1  UNL1        0.0922
     11 C          68.2977   92.7924    9.0848 C.3     1  UNL1        0.0229
     12 C          67.8208   94.0928    8.5088 C.3     1  UNL1        0.0190
     13 C          66.6778   94.8227    9.1497 C.3     1  UNL1        0.0709
     14 N          66.2010   96.1230    8.5737 N.3     1  UNL1       -0.3208
     15 C          66.0116   94.2522   10.3666 C.3     1  UNL1        0.1075
     16 H          65.4232   96.4767    9.1308 H       1  UNL1        0.1189
     17 H          65.8918   95.9762    7.6128 H       1  UNL1        0.1189
     18 C          63.8404   91.5645   10.6917 C.3     1  UNL1        0.1879
     19 C          61.6148   87.8050    9.6134 C.3     1  UNL1        0.0900
     20 C          62.3567   89.0581    9.9728 C.1     1  UNL1       -0.0881
     21 C          63.0985   90.3113   10.3323 C.1     1  UNL1       -0.0655
     22 C          63.8239   90.6702   15.8102 C.3     1  UNL1        0.1592
     23 C          63.6516   89.1862   15.9448 C.ar    1  UNL1        0.0820
     24 C          63.0385   88.6119   17.1875 C.ar    1  UNL1        0.0167
     25 C          62.8663   87.1280   17.3220 C.ar    1  UNL1        0.0028
     26 C          63.3072   86.2182   16.2138 C.ar    1  UNL1        0.0177
     27 C          63.1349   84.7342   16.3484 C.ar    1  UNL1        0.0024
     28 C          63.5758   83.8245   15.2402 C.ar    1  UNL1        0.0115
     29 C          64.1889   84.3988   13.9975 C.ar    1  UNL1        0.0592
     30 CL         64.6297   83.4891   12.8893 Cl      1  UNL1       -0.0822
     31 C          64.3611   85.8828   13.8629 C.ar    1  UNL1        0.0305
     32 C          63.9202   86.7925   14.9711 C.ar    1  UNL1        0.0818
     33 N          64.0925   88.2765   14.8366 N.ar    1  UNL1       -0.2477
@<TRIPOS>BOND
     1    19    20    1
     2    20    21    3
     3    21    18    1
     4    18     1    1
     5     1     2   ar
     6     2     9    1
     7     9    10    1
     8    10    11    1
     9    11    12    1
    10    12    13    1
    11    13    14    1
    12    13    15    1
    13     2     3   ar
    14     3     4   ar
    15     4     5    2
    16     4     6   ar
    17     6    22    1
    18    22    23    1
    19    23    24   ar
    20    24    25   ar
    21    25    26   ar
    22    26    27   ar
    23    27    28   ar
    24    28    29   ar
    25    29    30    1
    26    29    31   ar
    27    31    32   ar
    28    32    33   ar
    29     6     7   ar
    30     7     8    2
    31     7     1   ar
    32    15     9    1
    33    33    23   ar
    34    32    26   ar
    35    14    16    1
    36    14    17    1
@<TRIPOS>MOLECULE
*****
 33 36 0 0 0
SMALL
GASTEIGER

@<TRIPOS>ATOM
      1 N          63.2072   86.1280   12.7143 N.ar    1  UNL1       -0.2570
      2 C          62.6003   85.2002   11.7039 C.ar    1  UNL1        0.1213
      3 C          61.7968   85.7537   10.5647 C.ar    1  UNL1        0.0935
      4 C          61.6002   87.2352   10.4357 C.ar    1  UNL1        0.2674
      5 O          60.7967   87.7888    9.2965 O.2     1  UNL1       -0.2667
      6 N          62.2071   88.1631   11.4460 N.ar    1  UNL1       -0.2428
      7 C          63.0106   87.6094   12.5853 C.ar    1  UNL1        0.3357
      8 O          63.6174   88.5373   13.5957 O.2     1  UNL1       -0.2461
      9 N          62.7969   83.7187   11.8328 N.pl3   1  UNL1       -0.2930
     10 C          63.3726   82.9362   10.6899 C.3     1  UNL1        0.0922
     11 C          63.5692   81.4548   10.8188 C.3     1  UNL1        0.0229
     12 C          63.1901   80.7558   12.0906 C.3     1  UNL1        0.0190
     13 C          62.6143   81.5382   13.2336 C.3     1  UNL1        0.0709
     14 N          62.2351   80.8391   14.5054 N.3     1  UNL1       -0.3208
     15 C          62.4177   83.0197   13.1047 C.3     1  UNL1        0.1075
     16 H          61.8633   81.5187   15.1690 H       1  UNL1        0.1189
     17 H          63.0589   80.3895   14.9048 H       1  UNL1        0.1189
     18 C          64.0106   85.5744   13.8535 C.3     1  UNL1        0.1879
     19 C          62.8261   86.4912   18.0969 C.3     1  UNL1        0.0900
     20 C          63.2209   86.1856   16.6825 C.1     1  UNL1       -0.0881
     21 C          63.6157   85.8800   15.2680 C.1     1  UNL1       -0.0655
     22 C          62.0105   89.6445   11.3171 C.3     1  UNL1        0.1592
     23 C          63.1486   90.5796   11.6005 C.ar    1  UNL1        0.0820
     24 C          63.7557   91.3811   10.4874 C.ar    1  UNL1        0.0167
     25 C          64.8938   92.3162   10.7707 C.ar    1  UNL1        0.0028
     26 C          65.4249   92.4497   12.1672 C.ar    1  UNL1        0.0177
     27 C          66.5630   93.3849   12.4506 C.ar    1  UNL1        0.0024
     28 C          67.0941   93.5184   13.8470 C.ar    1  UNL1        0.0115
     29 C          66.4869   92.7169   14.9602 C.ar    1  UNL1        0.0592
     30 CL         67.0180   92.8504   16.3566 Cl      1  UNL1       -0.0822
     31 C          65.3488   91.7818   14.6768 C.ar    1  UNL1        0.0305
     32 C          64.8178   91.6483   13.2803 C.ar    1  UNL1        0.0818
     33 N          63.6797   90.7132   12.9969 N.ar    1  UNL1       -0.2477
@<TRIPOS>BOND
     1    19    20    1
     2    20    21    3
     3    21    18    1
     4    18     1    1
     5     1     2   ar
     6     2     9    1
     7     9    10    1
     8    10    11    1
     9    11    12    1
    10    12    13    1
    11    13    14    1
    12    13    15    1
    13     2     3   ar
    14     3     4   ar
    15     4     5    2
    16     4     6   ar
    17     6    22    1
    18    22    23    1
    19    23    24   ar
    20    24    25   ar
    21    25    26   ar
    22    26    27   ar
    23    27    28   ar
    24    28    29   ar
    25    29    30    1
    26    29    31   ar
    27    31    32   ar
    28    32    33   ar
    29     6     7   ar
    30     7     8    2
    31     7     1   ar
    32    15     9    1
    33    33    23   ar
    34    32    26   ar
    35    14    16    1
    36    14    17    1
@<TRIPOS>MOLECULE
*****
 33 36 0 0 0
SMALL
GASTEIGER

@<TRIPOS>ATOM
      1 N          65.4368   92.5472   12.5043 N.ar    1  UNL1       -0.2570
      2 C          65.2884   92.5174   11.0120 C.ar    1  UNL1        0.1213
      3 C          64.3479   91.5404   10.3712 C.ar    1  UNL1        0.0935
      4 C          63.5557   90.5930   11.2227 C.ar    1  UNL1        0.2674
      5 O          62.6151   89.6160   10.5819 O.2     1  UNL1       -0.2667
      6 N          63.7040   90.6228   12.7151 N.ar    1  UNL1       -0.2428
      7 C          64.6446   91.6000   13.3559 C.ar    1  UNL1        0.3357
      8 O          64.7930   91.6298   14.8482 O.2     1  UNL1       -0.2461
      9 N          66.0805   93.4647   10.1605 N.pl3   1  UNL1       -0.2930
     10 C          67.5286   93.1903    9.8811 C.3     1  UNL1        0.0922
     11 C          68.3207   94.1376    9.0295 C.3     1  UNL1        0.0229
     12 C          67.6649   95.3592    8.4574 C.3     1  UNL1        0.0190
     13 C          66.2170   95.6337    8.7367 C.3     1  UNL1        0.0709
     14 N          65.5612   96.8554    8.1645 N.3     1  UNL1       -0.3208
     15 C          65.4247   94.6864    9.5883 C.3     1  UNL1        0.1075
     16 H          64.5833   96.8832    8.4534 H       1  UNL1        0.1189
     17 H          65.6141   96.8244    7.1464 H       1  UNL1        0.1189
     18 C          66.3773   93.5243   13.1451 C.3     1  UNL1        0.1879
     19 C          69.0660   92.1911   16.4983 C.3     1  UNL1        0.0900
     20 C          68.1698   92.6355   15.3806 C.1     1  UNL1       -0.0881
     21 C          67.2736   93.0799   14.2629 C.1     1  UNL1       -0.0655
     22 C          62.9119   89.6756   13.5666 C.3     1  UNL1        0.1592
     23 C          63.3702   88.2574   13.7366 C.ar    1  UNL1        0.0820
     24 C          64.2544   87.8882   14.8906 C.ar    1  UNL1        0.0167
     25 C          64.7127   86.4701   15.0605 C.ar    1  UNL1        0.0028
     26 C          64.2868   85.4212   14.0764 C.ar    1  UNL1        0.0177
     27 C          64.7452   84.0031   14.2464 C.ar    1  UNL1        0.0024
     28 C          64.3193   82.9542   13.2622 C.ar    1  UNL1        0.0115
     29 C          63.4351   83.3235   12.1082 C.ar    1  UNL1        0.0592
     30 CL         63.0092   82.2746   11.1240 Cl      1  UNL1       -0.0822
     31 C          62.9768   84.7416   11.9382 C.ar    1  UNL1        0.0305
     32 C          63.4027   85.7904   12.9224 C.ar    1  UNL1        0.0818
     33 N          62.9444   87.2085   12.7524 N.ar    1  UNL1       -0.2477
@<TRIPOS>BOND
     1    19    20    1
     2    20    21    3
     3    21    18    1
     4    18     1    1
     5     1     2   ar
     6     2     9    1
     7     9    10    1
     8    10    11    1
     9    11    12    1
    10    12    13    1
    11    13    14    1
    12    13    15    1
    13     2     3   ar
    14     3     4   ar
    15     4     5    2
    16     4     6   ar
    17     6    22    1
    18    22    23    1
    19    23    24   ar
    20    24    25   ar
    21    25    26   ar
    22    26    27   ar
    23    27    28   ar
    24    28    29   ar
    25    29    30    1
    26    29    31   ar
    27    31    32   ar
    28    32    33   ar
    29     6     7   ar
    30     7     8    2
    31     7     1   ar
    32    15     9    1
    33    33    23   ar
    34    32    26   ar
    35    14    16    1
    36    14    17    1
@<TRIPOS>MOLECULE
*****
 33 36 0 0 0
SMALL
GASTEIGER

@<TRIPOS>ATOM
      1 N          63.7731   90.8366   14.2626 N.ar    1  UNL1       -0.2570
      2 C          64.8749   91.5157   13.5044 C.ar    1  UNL1        0.1213
      3 C          64.7286   91.7667   12.0328 C.ar    1  UNL1        0.0935
      4 C          63.4805   91.3385   11.3194 C.ar    1  UNL1        0.2674
      5 O          63.3342   91.5895    9.8478 O.2     1  UNL1       -0.2667
      6 N          62.3787   90.6594   12.0776 N.ar    1  UNL1       -0.2428
      7 C          62.5250   90.4084   13.5492 C.ar    1  UNL1        0.3357
      8 O          61.4232   89.7293   14.3074 O.2     1  UNL1       -0.2461
      9 N          66.1229   91.9439   14.2178 N.pl3   1  UNL1       -0.2930
     10 C          66.0361   92.5253   15.5978 C.3     1  UNL1        0.0922
     11 C          67.2842   92.9534   16.3112 C.3     1  UNL1        0.0229
     12 C          68.6191   92.8002   15.6446 C.3     1  UNL1        0.0190
     13 C          68.7060   92.2188   14.2646 C.3     1  UNL1        0.0709
     14 N          70.0410   92.0655   13.5980 N.3     1  UNL1       -0.3208
     15 C          67.4579   91.7906   13.5512 C.3     1  UNL1        0.1075
     16 H          69.9138   91.6571   12.6721 H       1  UNL1        0.1189
     17 H          70.6338   91.4550   14.1604 H       1  UNL1        0.1189
     18 C          63.9194   90.5856   15.7342 C.3     1  UNL1        0.1879
     19 C          62.6003   86.6574   17.4889 C.3     1  UNL1        0.0900
     20 C          63.0399   87.9668   16.9040 C.1     1  UNL1       -0.0881
     21 C          63.4796   89.2762   16.3191 C.1     1  UNL1       -0.0655
     22 C          61.1306   90.2313   11.3642 C.3     1  UNL1        0.1592
     23 C          61.1690   89.0677   10.4182 C.ar    1  UNL1        0.0820
     24 C          60.3051   89.0692    9.1920 C.ar    1  UNL1        0.0167
     25 C          60.3436   87.9057    8.2461 C.ar    1  UNL1        0.0028
     26 C          61.2460   86.7408    8.5264 C.ar    1  UNL1        0.0177
     27 C          61.2844   85.5773    7.5804 C.ar    1  UNL1        0.0024
     28 C          62.1868   84.4123    7.8607 C.ar    1  UNL1        0.0115
     29 C          63.0507   84.4108    9.0870 C.ar    1  UNL1        0.0592
     30 CL         63.9531   83.2459    9.3673 Cl      1  UNL1       -0.0822
     31 C          63.0123   85.5743   10.0329 C.ar    1  UNL1        0.0305
     32 C          62.1099   86.7393    9.7526 C.ar    1  UNL1        0.0818
     33 N          62.0714   87.9028   10.6985 N.ar    1  UNL1       -0.2477
@<TRIPOS>BOND
     1    19    20    1
     2    20    21    3
     3    21    18    1
     4    18     1    1
     5     1     2   ar
     6     2     9    1
     7     9    10    1
     8    10    11    1
     9    11    12    1
    10    12    13    1
    11    13    14    1
    12    13    15    1
    13     2     3   ar
    14     3     4   ar
    15     4     5    2
    16     4     6   ar
    17     6    22    1
    18    22    23    1
    19    23    24   ar
    20    24    25   ar
    21    25    26   ar
    22    26    27   ar
    23    27    28   ar
    24    28    29   ar
    25    29    30    1
    26    29    31   ar
    27    31    32   ar
    28    32    33   ar
    29     6     7   ar
    30     7     8    2
    31     7     1   ar
    32    15     9    1
    33    33    23   ar
    34    32    26   ar
    35    14    16    1
    36    14    17    1
@<TRIPOS>MOLECULE
*****
 33 36 0 0 0
SMALL
GASTEIGER

@<TRIPOS>ATOM
      1 N          65.8122   92.5821   13.8768 N.ar    1  UNL1       -0.2570
      2 C          65.3768   92.3581   12.4590 C.ar    1  UNL1        0.1213
      3 C          64.2390   91.4270   12.1619 C.ar    1  UNL1        0.0935
      4 C          63.5364   90.7197   13.2828 C.ar    1  UNL1        0.2674
      5 O          62.3986   89.7886   12.9857 O.2     1  UNL1       -0.2667
      6 N          63.9718   90.9436   14.7006 N.ar    1  UNL1       -0.2428
      7 C          65.1097   91.8748   14.9976 C.ar    1  UNL1        0.3357
      8 O          65.5450   92.0987   16.4155 O.2     1  UNL1       -0.2461
      9 N          66.0793   93.0654   11.3381 N.pl3   1  UNL1       -0.2930
     10 C          65.7935   94.5131   11.0687 C.3     1  UNL1        0.0922
     11 C          66.4960   95.2203    9.9479 C.3     1  UNL1        0.0229
     12 C          67.4844   94.4799    9.0965 C.3     1  UNL1        0.0190
     13 C          67.7702   93.0323    9.3658 C.3     1  UNL1        0.0709
     14 N          68.7585   92.2918    8.5143 N.3     1  UNL1       -0.3208
     15 C          67.0677   92.3249   10.4867 C.3     1  UNL1        0.1075
     16 H          68.8283   91.3264    8.8359 H       1  UNL1        0.1189
     17 H          69.6717   92.7406    8.5851 H       1  UNL1        0.1189
     18 C          66.9500   93.5132   14.1739 C.3     1  UNL1        0.1879
     19 C          70.2556   92.2164   16.9382 C.3     1  UNL1        0.0900
     20 C          69.1537   92.6487   16.0168 C.1     1  UNL1       -0.0881
     21 C          68.0519   93.0809   15.0954 C.1     1  UNL1       -0.0655
     22 C          63.2693   90.2364   15.8214 C.3     1  UNL1        0.1592
     23 C          63.3350   88.7412   15.9230 C.ar    1  UNL1        0.0820
     24 C          62.9711   88.0601   17.2089 C.ar    1  UNL1        0.0167
     25 C          63.0369   86.5650   17.3103 C.ar    1  UNL1        0.0028
     26 C          63.4664   85.7511   16.1259 C.ar    1  UNL1        0.0177
     27 C          63.5322   84.2559   16.2274 C.ar    1  UNL1        0.0024
     28 C          63.9617   83.4419   15.0429 C.ar    1  UNL1        0.0115
     29 C          64.3256   84.1231   13.7570 C.ar    1  UNL1        0.0592
     30 CL         64.7551   83.3092   12.5725 Cl      1  UNL1       -0.0822
     31 C          64.2598   85.6182   13.6555 C.ar    1  UNL1        0.0305
     32 C          63.8303   86.4322   14.8400 C.ar    1  UNL1        0.0818
     33 N          63.7645   87.9273   14.7385 N.ar    1  UNL1       -0.2477
@<TRIPOS>BOND
     1    19    20    1
     2    20    21    3
     3    21    18    1
     4    18     1    1
     5     1     2   ar
     6     2     9    1
     7     9    10    1
     8    10    11    1
     9    11    12    1
    10    12    13    1
    11    13    14    1
    12    13    15    1
    13     2     3   ar
    14     3     4   ar
    15     4     5    2
    16     4     6   ar
    17     6    22    1
    18    22    23    1
    19    23    24   ar
    20    24    25   ar
    21    25    26   ar
    22    26    27   ar
    23    27    28   ar
    24    28    29   ar
    25    29    30    1
    26    29    31   ar
    27    31    32   ar
    28    32    33   ar
    29     6     7   ar
    30     7     8    2
    31     7     1   ar
    32    15     9    1
    33    33    23   ar
    34    32    26   ar
    35    14    16    1
    36    14    17    1
@<TRIPOS>MOLECULE
*****
 33 36 0 0 0
SMALL
GASTEIGER

@<TRIPOS>ATOM
      1 N          64.7212   91.0930   12.1784 N.ar    1  UNL1       -0.2570
      2 C          64.5466   91.9321   10.9473 C.ar    1  UNL1        0.1213
      3 C          63.4575   91.6090    9.9678 C.ar    1  UNL1        0.0935
      4 C          62.5430   90.4469   10.2193 C.ar    1  UNL1        0.2674
      5 O          61.4539   90.1238    9.2398 O.2     1  UNL1       -0.2667
      6 N          62.7176   89.6078   11.4504 N.ar    1  UNL1       -0.2428
      7 C          63.8068   89.9309   12.4299 C.ar    1  UNL1        0.3357
      8 O          63.9814   89.0919   13.6610 O.2     1  UNL1       -0.2461
      9 N          65.4610   93.0941   10.6958 N.pl3   1  UNL1       -0.2930
     10 C          66.6004   92.9566    9.7299 C.3     1  UNL1        0.0922
     11 C          67.5148   94.1187    9.4783 C.3     1  UNL1        0.0229
     12 C          67.2899   95.4184   10.1927 C.3     1  UNL1        0.0190
     13 C          66.1506   95.5559   11.1586 C.3     1  UNL1        0.0709
     14 N          65.9257   96.8556   11.8729 N.3     1  UNL1       -0.3208
     15 C          65.2361   94.3938   11.4102 C.3     1  UNL1        0.1075
     16 H          65.1146   96.7710   12.4855 H       1  UNL1        0.1189
     17 H          65.7603   97.5948   11.1899 H       1  UNL1        0.1189
     18 C          65.8103   91.4160   13.1579 C.3     1  UNL1        0.1879
     19 C          64.7714   92.5154   17.3961 C.3     1  UNL1        0.0900
     20 C          65.1177   92.1489   15.9834 C.1     1  UNL1       -0.0881
     21 C          65.4640   91.7825   14.5707 C.1     1  UNL1       -0.0655
     22 C          61.8032   88.4457   11.7019 C.3     1  UNL1        0.1592
     23 C          62.2161   87.0636   11.2903 C.ar    1  UNL1        0.0820
     24 C          62.3649   86.7271    9.8362 C.ar    1  UNL1        0.0167
     25 C          62.7778   85.3451    9.4247 C.ar    1  UNL1        0.0028
     26 C          63.0419   84.2995   10.4673 C.ar    1  UNL1        0.0177
     27 C          63.4548   82.9174   10.0557 C.ar    1  UNL1        0.0024
     28 C          63.7190   81.8718   11.0983 C.ar    1  UNL1        0.0115
     29 C          63.5702   82.2084   12.5525 C.ar    1  UNL1        0.0592
     30 CL         63.8343   81.1629   13.5952 Cl      1  UNL1       -0.0822
     31 C          63.1573   83.5905   12.9641 C.ar    1  UNL1        0.0305
     32 C          62.8932   84.6360   11.9214 C.ar    1  UNL1        0.0818
     33 N          62.4803   86.0181   12.3330 N.ar    1  UNL1       -0.2477
@<TRIPOS>BOND
     1    19    20    1
     2    20    21    3
     3    21    18    1
     4    18     1    1
     5     1     2   ar
     6     2     9    1
     7     9    10    1
     8    10    11    1
     9    11    12    1
    10    12    13    1
    11    13    14    1
    12    13    15    1
    13     2     3   ar
    14     3     4   ar
    15     4     5    2
    16     4     6   ar
    17     6    22    1
    18    22    23    1
    19    23    24   ar
    20    24    25   ar
    21    25    26   ar
    22    26    27   ar
    23    27    28   ar
    24    28    29   ar
    25    29    30    1
    26    29    31   ar
    27    31    32   ar
    28    32    33   ar
    29     6     7   ar
    30     7     8    2
    31     7     1   ar
    32    15     9    1
    33    33    23   ar
    34    32    26   ar
    35    14    16    1
    36    14    17    1
@<TRIPOS>MOLECULE
*****
 33 36 0 0 0
SMALL
GASTEIGER

@<TRIPOS>ATOM
      1 N          64.0159   89.3730   13.1323 N.ar    1  UNL1       -0.2570
      2 C          64.1333   90.6948   12.4328 C.ar    1  UNL1        0.1213
      3 C          63.4122   90.9246   11.1378 C.ar    1  UNL1        0.0935
      4 C          62.5738   89.8326   10.5421 C.ar    1  UNL1        0.2674
      5 O          61.8527   90.0624    9.2471 O.2     1  UNL1       -0.2667
      6 N          62.4564   88.5109   11.2416 N.ar    1  UNL1       -0.2428
      7 C          63.1776   88.2811   12.5367 C.ar    1  UNL1        0.3357
      8 O          63.0602   86.9594   13.2362 O.2     1  UNL1       -0.2461
      9 N          64.9717   91.7867   13.0284 N.pl3   1  UNL1       -0.2930
     10 C          65.5549   92.8504   12.1461 C.3     1  UNL1        0.0922
     11 C          66.3933   93.9423   12.7417 C.3     1  UNL1        0.0229
     12 C          66.6485   93.9706   14.2195 C.3     1  UNL1        0.0190
     13 C          66.0653   92.9069   15.1018 C.3     1  UNL1        0.0709
     14 N          66.3205   92.9352   16.5797 N.3     1  UNL1       -0.3208
     15 C          65.2268   91.8149   14.5063 C.3     1  UNL1        0.1075
     16 H          65.8521   92.1437   17.0208 H       1  UNL1        0.1189
     17 H          65.9589   93.8052   16.9706 H       1  UNL1        0.1189
     18 C          64.7370   89.1432   14.4273 C.3     1  UNL1        0.1879
     19 C          62.6472   87.0655   17.8282 C.3     1  UNL1        0.0900
     20 C          63.3438   87.7581   16.6946 C.1     1  UNL1       -0.0881
     21 C          64.0404   88.4506   15.5610 C.1     1  UNL1       -0.0655
     22 C          61.6180   87.4190   10.6460 C.3     1  UNL1        0.1592
     23 C          62.1625   86.0247   10.5468 C.ar    1  UNL1        0.0820
     24 C          62.8622   85.5799    9.2969 C.ar    1  UNL1        0.0167
     25 C          63.4065   84.1857    9.1977 C.ar    1  UNL1        0.0028
     26 C          63.2512   83.2363   10.3486 C.ar    1  UNL1        0.0177
     27 C          63.7956   81.8421   10.2495 C.ar    1  UNL1        0.0024
     28 C          63.6403   80.8927   11.4004 C.ar    1  UNL1        0.0115
     29 C          62.9406   81.3376   12.6504 C.ar    1  UNL1        0.0592
     30 CL         62.7852   80.3882   13.8013 Cl      1  UNL1       -0.0822
     31 C          62.3962   82.7318   12.7495 C.ar    1  UNL1        0.0305
     32 C          62.5515   83.6811   11.5986 C.ar    1  UNL1        0.0818
     33 N          62.0071   85.0753   11.6977 N.ar    1  UNL1       -0.2477
@<TRIPOS>BOND
     1    19    20    1
     2    20    21    3
     3    21    18    1
     4    18     1    1
     5     1     2   ar
     6     2     9    1
     7     9    10    1
     8    10    11    1
     9    11    12    1
    10    12    13    1
    11    13    14    1
    12    13    15    1
    13     2     3   ar
    14     3     4   ar
    15     4     5    2
    16     4     6   ar
    17     6    22    1
    18    22    23    1
    19    23    24   ar
    20    24    25   ar
    21    25    26   ar
    22    26    27   ar
    23    27    28   ar
    24    28    29   ar
    25    29    30    1
    26    29    31   ar
    27    31    32   ar
    28    32    33   ar
    29     6     7   ar
    30     7     8    2
    31     7     1   ar
    32    15     9    1
    33    33    23   ar
    34    32    26   ar
    35    14    16    1
    36    14    17    1
@<TRIPOS>MOLECULE
*****
 33 36 0 0 0
SMALL
GASTEIGER

@<TRIPOS>ATOM
      1 N          62.3706   86.3097   11.3268 N.ar    1  UNL1       -0.2570
      2 C          63.0440   85.4894   12.3868 C.ar    1  UNL1        0.1213
      3 C          63.7663   86.1668   13.5135 C.ar    1  UNL1        0.0935
      4 C          63.8151   87.6646   13.5802 C.ar    1  UNL1        0.2674
      5 O          64.5373   88.3420   14.7069 O.2     1  UNL1       -0.2667
      6 N          63.1417   88.4849   12.5202 N.ar    1  UNL1       -0.2428
      7 C          62.4194   87.8074   11.3935 C.ar    1  UNL1        0.3357
      8 O          61.7460   88.6277   10.3335 O.2     1  UNL1       -0.2461
      9 N          62.9952   83.9917   12.3201 N.pl3   1  UNL1       -0.2930
     10 C          63.4862   83.2791   11.0948 C.3     1  UNL1        0.0922
     11 C          63.4374   81.7814   11.0282 C.3     1  UNL1        0.0229
     12 C          62.8977   80.9963   12.1867 C.3     1  UNL1        0.0190
     13 C          62.4067   81.7088   13.4119 C.3     1  UNL1        0.0709
     14 N          61.8670   80.9236   14.5705 N.3     1  UNL1       -0.3208
     15 C          62.4555   83.2066   13.4787 C.3     1  UNL1        0.1075
     16 H          61.5810   81.5638   15.3113 H       1  UNL1        0.1189
     17 H          62.5905   80.2971   14.9231 H       1  UNL1        0.1189
     18 C          61.6484   85.6323   10.2001 C.3     1  UNL1        0.1879
     19 C          59.0358   88.0356    7.4345 C.3     1  UNL1        0.0900
     20 C          59.9066   87.2345    8.3564 C.1     1  UNL1       -0.0881
     21 C          60.7775   86.4334    9.2782 C.1     1  UNL1       -0.0655
     22 C          63.1905   89.9826   12.5869 C.3     1  UNL1        0.1592
     23 C          64.1109   90.6605   13.5582 C.ar    1  UNL1        0.0820
     24 C          63.6058   91.0690   14.9101 C.ar    1  UNL1        0.0167
     25 C          64.5262   91.7469   15.8813 C.ar    1  UNL1        0.0028
     26 C          65.9519   92.0163   15.5004 C.ar    1  UNL1        0.0177
     27 C          66.8723   92.6942   16.4717 C.ar    1  UNL1        0.0024
     28 C          68.2980   92.9636   16.0908 C.ar    1  UNL1        0.0115
     29 C          68.8031   92.5550   14.7388 C.ar    1  UNL1        0.0592
     30 CL         70.2287   92.8244   14.3579 Cl      1  UNL1       -0.0822
     31 C          67.8827   91.8771   13.7676 C.ar    1  UNL1        0.0305
     32 C          66.4570   91.6078   14.1485 C.ar    1  UNL1        0.0818
     33 N          65.5366   90.9299   13.1773 N.ar    1  UNL1       -0.2477
@<TRIPOS>BOND
     1    19    20    1
     2    20    21    3
     3    21    18    1
     4    18     1    1
     5     1     2   ar
     6     2     9    1
     7     9    10    1
     8    10    11    1
     9    11    12    1
    10    12    13    1
    11    13    14    1
    12    13    15    1
    13     2     3   ar
    14     3     4   ar
    15     4     5    2
    16     4     6   ar
    17     6    22    1
    18    22    23    1
    19    23    24   ar
    20    24    25   ar
    21    25    26   ar
    22    26    27   ar
    23    27    28   ar
    24    28    29   ar
    25    29    30    1
    26    29    31   ar
    27    31    32   ar
    28    32    33   ar
    29     6     7   ar
    30     7     8    2
    31     7     1   ar
    32    15     9    1
    33    33    23   ar
    34    32    26   ar
    35    14    16    1
    36    14    17    1
