@<TRIPOS>MOLECULE
*****
 29 31 0 0 0
SMALL
GASTEIGER

@<TRIPOS>ATOM
      1 C          63.5389   86.0083   15.5576 C.ar    1  UNL1        0.0191
      2 C          64.3367   86.6031   14.4351 C.ar    1  UNL1        0.0063
      3 C          64.5865   88.0815   14.3939 C.ar    1  UNL1        0.0581
      4 C          64.0386   88.9653   15.4751 C.ar    1  UNL1        0.2297
      5 N          63.2408   88.3705   16.5975 N.ar    1  UNL1       -0.2098
      6 C          62.9910   86.8919   16.6387 C.ar    1  UNL1        0.1020
      7 C          63.1892   83.7502   14.3213 C.2     1  UNL1       -0.0069
      8 C          63.2891   84.5298   15.5988 C.2     1  UNL1       -0.0014
      9 C          62.9394   82.2717   14.3625 C.3     1  UNL1        0.0939
     10 C          64.0628   81.3137   14.0973 C.3     1  UNL1        0.0262
     11 C          59.6742   80.0182   14.2610 C.3     1  UNL1        0.0946
     12 C          61.0473   80.5386   13.9546 C.2     1  UNL1        0.2232
     13 O          61.9014   79.8463   12.9342 O.2     1  UNL1       -0.2751
     14 N          61.5663   81.7513   14.6688 N.am    1  UNL1       -0.3022
     15 H          61.0057   82.2057   15.3386 H       1  UNL1        0.1497
     16 O          64.2884   90.4437   15.4339 O.3     1  UNL1       -0.4352
     17 C          64.5076   91.1309   14.1186 C.ar    1  UNL1        0.1591
     18 C          63.7757   90.6620   12.8963 C.ar    1  UNL1        0.0390
     19 C          63.9949   91.3492   11.5810 C.ar    1  UNL1        0.0112
     20 C          64.9462   92.5052   11.4883 C.ar    1  UNL1        0.0492
     21 S          65.3627   93.3724   10.3374 S.2     1  UNL1       -0.0708
     22 C          66.3521   94.3773   10.8486 C.ar    1  UNL1        0.0878
     23 N          66.5471   94.1311   12.3154 N.ar    1  UNL1       -0.2418
     24 C          65.6782   92.9741   12.7107 C.ar    1  UNL1        0.1009
     25 C          65.4589   92.2869   14.0259 C.ar    1  UNL1        0.1102
     26 CL         66.1909   92.7558   15.2483 Cl      1  UNL1       -0.0775
     27 C          67.0280   95.4415   10.0357 C.3     1  UNL1        0.0466
     28 C          67.6668   95.0914    8.7245 C.3     1  UNL1        0.0069
     29 C          67.0650   96.8558   10.5341 C.3     1  UNL1        0.0069
@<TRIPOS>BOND
     1    11    12    1
     2    12    13    2
     3    12    14   am
     4    14     9    1
     5     9    10    1
     6     9     7    1
     7     7     8    2
     8     8     1    1
     9     1     2   ar
    10     2     3   ar
    11     3     4   ar
    12     4    16    1
    13    16    17    1
    14    17    18   ar
    15    18    19   ar
    16    19    20   ar
    17    20    21   ar
    18    21    22   ar
    19    22    27    1
    20    27    28    1
    21    27    29    1
    22    22    23   ar
    23    23    24   ar
    24    24    25   ar
    25    25    26    1
    26     4     5   ar
    27     5     6   ar
    28     6     1   ar
    29    25    17   ar
    30    24    20   ar
    31    14    15    1
@<TRIPOS>MOLECULE
*****
 29 31 0 0 0
SMALL
GASTEIGER

@<TRIPOS>ATOM
      1 C          62.3483   86.0858   10.7645 C.ar    1  UNL1        0.0191
      2 C          61.9692   86.9975    9.6352 C.ar    1  UNL1        0.0063
      3 C          61.9943   88.4844    9.8311 C.ar    1  UNL1        0.0581
      4 C          62.3983   89.0597   11.1562 C.ar    1  UNL1        0.2297
      5 N          62.7773   88.1480   12.2854 N.ar    1  UNL1       -0.2098
      6 C          62.7522   86.6610   12.0895 C.ar    1  UNL1        0.1020
      7 C          62.9991   83.7001   11.5612 C.2     1  UNL1       -0.0069
      8 C          62.3232   84.5989   10.5686 C.2     1  UNL1       -0.0014
      9 C          62.9741   82.2132   11.3653 C.3     1  UNL1        0.0939
     10 C          63.9691   81.5602   10.4522 C.3     1  UNL1        0.0262
     11 C          61.0207   80.3696   14.2868 C.3     1  UNL1        0.0946
     12 C          62.0406   81.2036   13.5697 C.2     1  UNL1        0.2232
     13 O          63.1469   81.8617   14.3397 O.2     1  UNL1       -0.2751
     14 N          61.9542   81.3793   12.0825 N.am    1  UNL1       -0.3022
     15 H          61.2280   80.9473   11.5771 H       1  UNL1        0.1497
     16 O          62.4233   90.5466   11.3522 O.3     1  UNL1       -0.4352
     17 C          63.6940   91.2270   11.7678 C.ar    1  UNL1        0.1591
     18 C          64.4899   92.0073   10.7641 C.ar    1  UNL1        0.0390
     19 C          65.7605   92.6877   11.1798 C.ar    1  UNL1        0.0112
     20 C          66.2351   92.5877   12.5992 C.ar    1  UNL1        0.0492
     21 S          67.4393   93.1475   13.2966 S.2     1  UNL1       -0.0708
     22 C          67.3876   92.7131   14.7314 C.ar    1  UNL1        0.0878
     23 N          66.1514   91.8848   14.9207 N.ar    1  UNL1       -0.2418
     24 C          65.4391   91.8073   13.6029 C.ar    1  UNL1        0.1009
     25 C          64.1685   91.1270   13.1872 C.ar    1  UNL1        0.1102
     26 CL         63.3725   90.3467   14.1909 Cl      1  UNL1       -0.0775
     27 C          68.3952   93.0481   15.7909 C.3     1  UNL1        0.0466
     28 C          68.9427   91.9664   16.6741 C.3     1  UNL1        0.0069
     29 C          68.8552   94.4649   15.9673 C.3     1  UNL1        0.0069
@<TRIPOS>BOND
     1    11    12    1
     2    12    13    2
     3    12    14   am
     4    14     9    1
     5     9    10    1
     6     9     7    1
     7     7     8    2
     8     8     1    1
     9     1     2   ar
    10     2     3   ar
    11     3     4   ar
    12     4    16    1
    13    16    17    1
    14    17    18   ar
    15    18    19   ar
    16    19    20   ar
    17    20    21   ar
    18    21    22   ar
    19    22    27    1
    20    27    28    1
    21    27    29    1
    22    22    23   ar
    23    23    24   ar
    24    24    25   ar
    25    25    26    1
    26     4     5   ar
    27     5     6   ar
    28     6     1   ar
    29    25    17   ar
    30    24    20   ar
    31    14    15    1
@<TRIPOS>MOLECULE
*****
 29 31 0 0 0
SMALL
GASTEIGER

@<TRIPOS>ATOM
      1 C          65.7290   92.8089   12.6892 C.ar    1  UNL1        0.0191
      2 C          64.5474   92.0702   12.1339 C.ar    1  UNL1        0.0063
      3 C          64.0985   90.7877   12.7694 C.ar    1  UNL1        0.0581
      4 C          64.8311   90.2440   13.9601 C.ar    1  UNL1        0.2297
      5 N          66.0126   90.9827   14.5153 N.ar    1  UNL1       -0.2098
      6 C          66.4616   92.2652   13.8797 C.ar    1  UNL1        0.1020
      7 C          65.3603   94.7129   10.9604 C.2     1  UNL1       -0.0069
      8 C          66.1778   94.0913   12.0537 C.2     1  UNL1       -0.0014
      9 C          65.8091   95.9954   10.3250 C.3     1  UNL1        0.0939
     10 C          66.8305   96.8544   11.0098 C.3     1  UNL1        0.0262
     11 C          65.5316   96.8559    6.4607 C.3     1  UNL1        0.0946
     12 C          66.1041   96.4325    7.7810 C.2     1  UNL1        0.2232
     13 O          67.5439   96.0229    7.8774 O.2     1  UNL1       -0.2751
     14 N          65.2367   96.4188    9.0047 N.am    1  UNL1       -0.3022
     15 H          64.2917   96.6876    8.9413 H       1  UNL1        0.1497
     16 O          64.3822   88.9615   14.5956 O.3     1  UNL1       -0.4352
     17 C          63.8798   87.8364   13.7402 C.ar    1  UNL1        0.1591
     18 C          63.1409   88.1328   12.4691 C.ar    1  UNL1        0.0390
     19 C          62.6384   87.0076   11.6137 C.ar    1  UNL1        0.0112
     20 C          62.8749   85.5860   12.0296 C.ar    1  UNL1        0.0492
     21 S          62.5005   84.2792   11.3955 S.2     1  UNL1       -0.0708
     22 C          63.0081   83.1751   12.2749 C.ar    1  UNL1        0.0878
     23 N          63.6962   83.7995   13.4524 N.ar    1  UNL1       -0.2418
     24 C          63.6139   85.2896   13.3009 C.ar    1  UNL1        0.1009
     25 C          64.1163   86.4147   14.1562 C.ar    1  UNL1        0.1102
     26 CL         64.8553   86.1183   15.4274 Cl      1  UNL1       -0.0775
     27 C          62.8546   81.7047   12.0212 C.3     1  UNL1        0.0466
     28 C          62.3839   80.7991   13.1204 C.3     1  UNL1        0.0069
     29 C          63.1718   81.1399   10.6683 C.3     1  UNL1        0.0069
@<TRIPOS>BOND
     1    11    12    1
     2    12    13    2
     3    12    14   am
     4    14     9    1
     5     9    10    1
     6     9     7    1
     7     7     8    2
     8     8     1    1
     9     1     2   ar
    10     2     3   ar
    11     3     4   ar
    12     4    16    1
    13    16    17    1
    14    17    18   ar
    15    18    19   ar
    16    19    20   ar
    17    20    21   ar
    18    21    22   ar
    19    22    27    1
    20    27    28    1
    21    27    29    1
    22    22    23   ar
    23    23    24   ar
    24    24    25   ar
    25    25    26    1
    26     4     5   ar
    27     5     6   ar
    28     6     1   ar
    29    25    17   ar
    30    24    20   ar
    31    14    15    1
@<TRIPOS>MOLECULE
*****
 29 31 0 0 0
SMALL
GASTEIGER

@<TRIPOS>ATOM
      1 C          63.8005   85.7441   13.3971 C.ar    1  UNL1        0.0191
      2 C          64.3637   86.1739   14.7193 C.ar    1  UNL1        0.0063
      3 C          64.3462   87.6230   15.1065 C.ar    1  UNL1        0.0581
      4 C          63.7657   88.6423   14.1716 C.ar    1  UNL1        0.2297
      5 N          63.2026   88.2124   12.8494 N.ar    1  UNL1       -0.2098
      6 C          63.2200   86.7633   12.4622 C.ar    1  UNL1        0.1020
      7 C          63.0916   83.8388   11.7794 C.2     1  UNL1       -0.0069
      8 C          63.8179   84.2951   13.0099 C.2     1  UNL1       -0.0014
      9 C          63.1091   82.3897   11.3922 C.3     1  UNL1        0.0939
     10 C          64.0608   81.9065   10.3382 C.3     1  UNL1        0.0262
     11 C          61.6447   79.7852   14.0040 C.3     1  UNL1        0.0946
     12 C          62.5789   80.7509   13.3373 C.2     1  UNL1        0.2232
     13 O          63.9170   81.0436   13.9487 O.2     1  UNL1       -0.2751
     14 N          62.1749   81.4240   12.0590 N.am    1  UNL1       -0.3022
     15 H          61.2966   81.2318   11.6577 H       1  UNL1        0.1497
     16 O          63.7483   90.0913   14.5587 O.3     1  UNL1       -0.4352
     17 C          64.6608   91.0626   13.8702 C.ar    1  UNL1        0.1591
     18 C          65.9354   91.4934   14.5331 C.ar    1  UNL1        0.0390
     19 C          66.8480   92.4646   13.8446 C.ar    1  UNL1        0.0112
     20 C          66.4857   93.0050   12.4930 C.ar    1  UNL1        0.0492
     21 S          67.1818   93.9682   11.5777 S.2     1  UNL1       -0.0708
     22 C          66.3372   94.1326   10.3490 C.ar    1  UNL1        0.0878
     23 N          65.1193   93.2711   10.5049 N.ar    1  UNL1       -0.2418
     24 C          65.2110   92.5742   11.8300 C.ar    1  UNL1        0.1009
     25 C          64.2986   91.6030   12.5186 C.ar    1  UNL1        0.1102
     26 CL         63.0239   91.1721   11.8556 Cl      1  UNL1       -0.0775
     27 C          66.6549   95.0054    9.1711 C.3     1  UNL1        0.0466
     28 C          66.0668   96.3821    9.0774 C.3     1  UNL1        0.0069
     29 C          67.5607   94.5014    8.0869 C.3     1  UNL1        0.0069
@<TRIPOS>BOND
     1    11    12    1
     2    12    13    2
     3    12    14   am
     4    14     9    1
     5     9    10    1
     6     9     7    1
     7     7     8    2
     8     8     1    1
     9     1     2   ar
    10     2     3   ar
    11     3     4   ar
    12     4    16    1
    13    16    17    1
    14    17    18   ar
    15    18    19   ar
    16    19    20   ar
    17    20    21   ar
    18    21    22   ar
    19    22    27    1
    20    27    28    1
    21    27    29    1
    22    22    23   ar
    23    23    24   ar
    24    24    25   ar
    25    25    26    1
    26     4     5   ar
    27     5     6   ar
    28     6     1   ar
    29    25    17   ar
    30    24    20   ar
    31    14    15    1
@<TRIPOS>MOLECULE
*****
 29 31 0 0 0
SMALL
GASTEIGER

@<TRIPOS>ATOM
      1 C          64.8100   91.8495   12.6361 C.ar    1  UNL1        0.0191
      2 C          65.8015   91.6119   13.7364 C.ar    1  UNL1        0.0063
      3 C          65.4073   90.8093   14.9407 C.ar    1  UNL1        0.0581
      4 C          64.0217   90.2442   15.0449 C.ar    1  UNL1        0.2297
      5 N          63.0302   90.4818   13.9446 N.ar    1  UNL1       -0.2098
      6 C          63.4244   91.2845   12.7402 C.ar    1  UNL1        0.1020
      7 C          66.6484   92.7577   11.0408 C.2     1  UNL1       -0.0069
      8 C          65.2041   92.6521   11.4318 C.2     1  UNL1       -0.0014
      9 C          67.0426   93.5603    9.8364 C.3     1  UNL1        0.0939
     10 C          68.3848   93.3490    9.2009 C.3     1  UNL1        0.0262
     11 C          64.8631   96.8545    9.4512 C.3     1  UNL1        0.0946
     12 C          65.8111   95.8406   10.0200 C.2     1  UNL1        0.2232
     13 O          66.4755   96.0932   11.3409 O.2     1  UNL1       -0.2751
     14 N          66.0946   94.5742    9.2677 N.am    1  UNL1       -0.3022
     15 H          65.6585   94.4084    8.4007 H       1  UNL1        0.1497
     16 O          63.6275   89.4416   16.2492 O.3     1  UNL1       -0.4352
     17 C          63.4294   87.9595   16.1306 C.ar    1  UNL1        0.1591
     18 C          62.8300   87.1894   17.2697 C.ar    1  UNL1        0.0390
     19 C          62.6319   85.7072   17.1512 C.ar    1  UNL1        0.0112
     20 C          63.0332   84.9952   15.8934 C.ar    1  UNL1        0.0492
     21 S          62.9595   83.5525   15.4897 S.2     1  UNL1       -0.0708
     22 C          63.5134   83.4309   14.1010 C.ar    1  UNL1        0.0878
     23 N          63.9294   84.7985   13.6465 N.ar    1  UNL1       -0.2418
     24 C          63.6326   85.7653   14.7542 C.ar    1  UNL1        0.1009
     25 C          63.8307   87.2475   14.8729 C.ar    1  UNL1        0.1102
     26 CL         64.4300   88.0176   13.7337 Cl      1  UNL1       -0.0775
     27 C          63.6307   82.1641   13.3063 C.3     1  UNL1        0.0466
     28 C          64.3218   82.1752   11.9751 C.3     1  UNL1        0.0069
     29 C          63.0570   80.8863   13.8430 C.3     1  UNL1        0.0069
@<TRIPOS>BOND
     1    11    12    1
     2    12    13    2
     3    12    14   am
     4    14     9    1
     5     9    10    1
     6     9     7    1
     7     7     8    2
     8     8     1    1
     9     1     2   ar
    10     2     3   ar
    11     3     4   ar
    12     4    16    1
    13    16    17    1
    14    17    18   ar
    15    18    19   ar
    16    19    20   ar
    17    20    21   ar
    18    21    22   ar
    19    22    27    1
    20    27    28    1
    21    27    29    1
    22    22    23   ar
    23    23    24   ar
    24    24    25   ar
    25    25    26    1
    26     4     5   ar
    27     5     6   ar
    28     6     1   ar
    29    25    17   ar
    30    24    20   ar
    31    14    15    1
@<TRIPOS>MOLECULE
*****
 29 31 0 0 0
SMALL
GASTEIGER

@<TRIPOS>ATOM
      1 C          59.8702   92.1841    3.9874 C.ar    1  UNL1        0.0191
      2 C          58.4346   92.0291    4.3938 C.ar    1  UNL1        0.0063
      3 C          58.0459   90.9735    5.3861 C.ar    1  UNL1        0.0581
      4 C          59.0927   90.0729    5.9719 C.ar    1  UNL1        0.2297
      5 N          60.5282   90.2279    5.5654 N.ar    1  UNL1       -0.2098
      6 C          60.9170   91.2835    4.5731 C.ar    1  UNL1        0.1020
      7 C          61.4605   93.0401    2.1197 C.2     1  UNL1       -0.0069
      8 C          60.2590   93.2397    2.9951 C.2     1  UNL1       -0.0014
      9 C          61.8492   94.0957    1.1275 C.3     1  UNL1        0.0939
     10 C          61.4156   93.9759   -0.3035 C.3     1  UNL1        0.0262
     11 C          64.9797   96.3075    2.1561 C.3     1  UNL1        0.0946
     12 C          64.1575   95.1322    1.7173 C.2     1  UNL1        0.2232
     13 O          64.8211   93.8181    1.4298 O.2     1  UNL1       -0.2751
     14 N          62.6715   95.2711    1.5662 N.am    1  UNL1       -0.3022
     15 H          62.2360   96.1336    1.7550 H       1  UNL1        0.1497
     16 O          58.7040   89.0172    6.9641 O.3     1  UNL1       -0.4352
     17 C          59.6288   88.6730    8.0939 C.ar    1  UNL1        0.1591
     18 C          60.2075   89.7619    8.9478 C.ar    1  UNL1        0.0390
     19 C          61.1323   89.4176   10.0776 C.ar    1  UNL1        0.0112
     20 C          61.4784   87.9844   10.3533 C.ar    1  UNL1        0.0492
     21 S          62.3550   87.3448   11.3889 S.2     1  UNL1       -0.0708
     22 C          62.3181   85.8607   11.1749 C.ar    1  UNL1        0.0878
     23 N          61.4186   85.5829   10.0071 N.ar    1  UNL1       -0.2418
     24 C          60.8996   86.8954    9.4993 C.ar    1  UNL1        0.1009
     25 C          59.9749   87.2397    8.3696 C.ar    1  UNL1        0.1102
     26 CL         59.3961   86.1508    7.5156 Cl      1  UNL1       -0.0775
     27 C          63.0518   84.8344   11.9863 C.3     1  UNL1        0.0466
     28 C          63.3615   83.4915   11.3942 C.3     1  UNL1        0.0069
     29 C          63.4758   85.1510   13.3899 C.3     1  UNL1        0.0069
@<TRIPOS>BOND
     1    11    12    1
     2    12    13    2
     3    12    14   am
     4    14     9    1
     5     9    10    1
     6     9     7    1
     7     7     8    2
     8     8     1    1
     9     1     2   ar
    10     2     3   ar
    11     3     4   ar
    12     4    16    1
    13    16    17    1
    14    17    18   ar
    15    18    19   ar
    16    19    20   ar
    17    20    21   ar
    18    21    22   ar
    19    22    27    1
    20    27    28    1
    21    27    29    1
    22    22    23   ar
    23    23    24   ar
    24    24    25   ar
    25    25    26    1
    26     4     5   ar
    27     5     6   ar
    28     6     1   ar
    29    25    17   ar
    30    24    20   ar
    31    14    15    1
@<TRIPOS>MOLECULE
*****
 29 31 0 0 0
SMALL
GASTEIGER

@<TRIPOS>ATOM
      1 C          59.6859   92.1999    4.0967 C.ar    1  UNL1        0.0191
      2 C          58.2678   91.9811    4.5342 C.ar    1  UNL1        0.0063
      3 C          57.9421   90.8797    5.4990 C.ar    1  UNL1        0.0581
      4 C          59.0344   89.9970    6.0263 C.ar    1  UNL1        0.2297
      5 N          60.4523   90.2158    5.5887 N.ar    1  UNL1       -0.2098
      6 C          60.7781   91.3173    4.6239 C.ar    1  UNL1        0.1020
      7 C          59.6045   93.1826    1.6930 C.2     1  UNL1       -0.0069
      8 C          60.0116   93.3013    3.1319 C.2     1  UNL1       -0.0014
      9 C          59.9302   94.2840    0.7283 C.3     1  UNL1        0.0939
     10 C          60.1710   95.6761    1.2327 C.3     1  UNL1        0.0262
     11 C          58.8469   93.4820   -3.0044 C.3     1  UNL1        0.0946
     12 C          58.7620   93.7726   -1.5353 C.2     1  UNL1        0.2232
     13 O          57.4241   93.8423   -0.8606 O.2     1  UNL1       -0.2751
     14 N          60.0151   93.9935   -0.7409 N.am    1  UNL1       -0.3022
     15 H          60.8932   93.9477   -1.1837 H       1  UNL1        0.1497
     16 O          58.7087   88.8956    6.9910 O.3     1  UNL1       -0.4352
     17 C          59.6419   88.5921    8.1256 C.ar    1  UNL1        0.1591
     18 C          60.2048   89.7093    8.9531 C.ar    1  UNL1        0.0390
     19 C          61.1380   89.4058   10.0876 C.ar    1  UNL1        0.0112
     20 C          61.5083   87.9850   10.3945 C.ar    1  UNL1        0.0492
     21 S          62.3979   87.3834   11.4417 S.2     1  UNL1       -0.0708
     22 C          62.3848   85.8944   11.2613 C.ar    1  UNL1        0.0878
     23 N          61.4871   85.5756   10.1026 N.ar    1  UNL1       -0.2418
     24 C          60.9453   86.8677    9.5669 C.ar    1  UNL1        0.1009
     25 C          60.0121   87.1713    8.4324 C.ar    1  UNL1        0.1102
     26 CL         59.4492   86.0541    7.6049 Cl      1  UNL1       -0.0775
     27 C          63.1374   84.8988   12.0934 C.3     1  UNL1        0.0466
     28 C          63.4623   83.5459   11.5330 C.3     1  UNL1        0.0069
     29 C          63.5650   85.2561   13.4861 C.3     1  UNL1        0.0069
@<TRIPOS>BOND
     1    11    12    1
     2    12    13    2
     3    12    14   am
     4    14     9    1
     5     9    10    1
     6     9     7    1
     7     7     8    2
     8     8     1    1
     9     1     2   ar
    10     2     3   ar
    11     3     4   ar
    12     4    16    1
    13    16    17    1
    14    17    18   ar
    15    18    19   ar
    16    19    20   ar
    17    20    21   ar
    18    21    22   ar
    19    22    27    1
    20    27    28    1
    21    27    29    1
    22    22    23   ar
    23    23    24   ar
    24    24    25   ar
    25    25    26    1
    26     4     5   ar
    27     5     6   ar
    28     6     1   ar
    29    25    17   ar
    30    24    20   ar
    31    14    15    1
@<TRIPOS>MOLECULE
*****
 29 31 0 0 0
SMALL
GASTEIGER

@<TRIPOS>ATOM
      1 C          63.5341   85.8271   15.3933 C.ar    1  UNL1        0.0191
      2 C          64.2935   86.7819   14.5206 C.ar    1  UNL1        0.0063
      3 C          64.2941   88.2483   14.8364 C.ar    1  UNL1        0.0581
      4 C          63.5353   88.7599   16.0249 C.ar    1  UNL1        0.2297
      5 N          62.7759   87.8050   16.8976 N.ar    1  UNL1       -0.2098
      6 C          62.7754   86.3386   16.5818 C.ar    1  UNL1        0.1020
      7 C          62.6619   83.8307   13.9778 C.2     1  UNL1       -0.0069
      8 C          63.5335   84.3607   15.0775 C.2     1  UNL1       -0.0014
      9 C          62.6613   82.3644   13.6620 C.3     1  UNL1        0.0939
     10 C          61.8767   81.4135   14.5166 C.3     1  UNL1        0.0262
     11 C          64.3154   82.1429   10.0613 C.3     1  UNL1        0.0946
     12 C          63.5314   82.6583   11.2316 C.2     1  UNL1        0.2232
     13 O          62.8335   83.9830   11.1420 O.2     1  UNL1       -0.2751
     14 N          63.4453   81.8489   12.4917 N.am    1  UNL1       -0.3022
     15 H          63.9034   80.9795   12.5505 H       1  UNL1        0.1497
     16 O          63.5358   90.2262   16.3408 O.3     1  UNL1       -0.4352
     17 C          64.3985   91.1637   15.5488 C.ar    1  UNL1        0.1591
     18 C          65.4503   91.9797   16.2398 C.ar    1  UNL1        0.0390
     19 C          66.3130   92.9171   15.4479 C.ar    1  UNL1        0.0112
     20 C          66.1238   93.0383   13.9648 C.ar    1  UNL1        0.0492
     21 S          66.8186   93.8718   12.9292 S.2     1  UNL1       -0.0708
     22 C          66.1961   93.5708   11.5980 C.ar    1  UNL1        0.0878
     23 N          65.1166   92.5513   11.8110 N.ar    1  UNL1       -0.2418
     24 C          65.0719   92.2222   13.2737 C.ar    1  UNL1        0.1009
     25 C          64.2093   91.2849   14.0657 C.ar    1  UNL1        0.1102
     26 CL         63.1574   90.4687   13.3747 Cl      1  UNL1       -0.0775
     27 C          66.5849   94.1819   10.2845 C.3     1  UNL1        0.0466
     28 C          67.5246   93.4557    9.3682 C.3     1  UNL1        0.0069
     29 C          66.0340   95.5193    9.8872 C.3     1  UNL1        0.0069
@<TRIPOS>BOND
     1    11    12    1
     2    12    13    2
     3    12    14   am
     4    14     9    1
     5     9    10    1
     6     9     7    1
     7     7     8    2
     8     8     1    1
     9     1     2   ar
    10     2     3   ar
    11     3     4   ar
    12     4    16    1
    13    16    17    1
    14    17    18   ar
    15    18    19   ar
    16    19    20   ar
    17    20    21   ar
    18    21    22   ar
    19    22    27    1
    20    27    28    1
    21    27    29    1
    22    22    23   ar
    23    23    24   ar
    24    24    25   ar
    25    25    26    1
    26     4     5   ar
    27     5     6   ar
    28     6     1   ar
    29    25    17   ar
    30    24    20   ar
    31    14    15    1
@<TRIPOS>MOLECULE
*****
 29 31 0 0 0
SMALL
GASTEIGER

@<TRIPOS>ATOM
      1 C          63.7434   91.0974   11.8542 C.ar    1  UNL1        0.0191
      2 C          63.3164   91.2672   10.4262 C.ar    1  UNL1        0.0063
      3 C          62.6636   90.1296    9.6983 C.ar    1  UNL1        0.0581
      4 C          62.4379   88.8222   10.3982 C.ar    1  UNL1        0.2297
      5 N          62.8649   88.6525   11.8261 N.ar    1  UNL1       -0.2098
      6 C          63.5176   89.7901   12.5541 C.ar    1  UNL1        0.1020
      7 C          65.5139   92.9970   11.9342 C.2     1  UNL1       -0.0069
      8 C          64.3961   92.2349   12.5820 C.2     1  UNL1       -0.0014
      9 C          66.1667   94.1346   12.6620 C.3     1  UNL1        0.0939
     10 C          66.4706   95.4125   11.9377 C.3     1  UNL1        0.0262
     11 C          67.9546   92.9141   15.9883 C.3     1  UNL1        0.0946
     12 C          67.6058   93.0545   14.5361 C.2     1  UNL1        0.2232
     13 O          68.3474   92.2551   13.5060 O.2     1  UNL1       -0.2751
     14 N          66.5154   93.9942   14.1142 N.am    1  UNL1       -0.3022
     15 H          66.0287   94.5189   14.7903 H       1  UNL1        0.1497
     16 O          61.7851   87.6847    9.6703 O.3     1  UNL1       -0.4352
     17 C          62.2760   86.2823    9.8764 C.ar    1  UNL1        0.1591
     18 C          63.0223   85.5803    8.7809 C.ar    1  UNL1        0.0390
     19 C          63.5132   84.1779    8.9870 C.ar    1  UNL1        0.0112
     20 C          63.2577   83.4776   10.2886 C.ar    1  UNL1        0.0492
     21 S          63.6176   82.1061   10.7780 S.2     1  UNL1       -0.0708
     22 C          63.0937   81.9605   12.1759 C.ar    1  UNL1        0.0878
     23 N          62.4101   83.2420   12.5506 N.ar    1  UNL1       -0.2418
     24 C          62.5114   84.1796   11.3842 C.ar    1  UNL1        0.1009
     25 C          62.0206   85.5820   11.1781 C.ar    1  UNL1        0.1102
     26 CL         61.2743   86.2840   12.2736 Cl      1  UNL1       -0.0775
     27 C          63.2296   80.7465   13.0464 C.3     1  UNL1        0.0466
     28 C          64.2952   80.6952   14.1009 C.3     1  UNL1        0.0069
     29 C          62.2999   79.5838   12.8625 C.3     1  UNL1        0.0069
@<TRIPOS>BOND
     1    11    12    1
     2    12    13    2
     3    12    14   am
     4    14     9    1
     5     9    10    1
     6     9     7    1
     7     7     8    2
     8     8     1    1
     9     1     2   ar
    10     2     3   ar
    11     3     4   ar
    12     4    16    1
    13    16    17    1
    14    17    18   ar
    15    18    19   ar
    16    19    20   ar
    17    20    21   ar
    18    21    22   ar
    19    22    27    1
    20    27    28    1
    21    27    29    1
    22    22    23   ar
    23    23    24   ar
    24    24    25   ar
    25    25    26    1
    26     4     5   ar
    27     5     6   ar
    28     6     1   ar
    29    25    17   ar
    30    24    20   ar
    31    14    15    1
