@<TRIPOS>MOLECULE
*****
 33 35 0 0 0
SMALL
GASTEIGER

@<TRIPOS>ATOM
      1 C          62.9341   85.8001   12.2381 C.2     1  UNL1        0.2439
      2 O          62.9061   87.2907   12.0725 O.2     1  UNL1       -0.2731
      3 N          63.4209   85.1972   13.5224 N.am    1  UNL1       -0.2730
      4 C          63.5059   83.7319   13.8321 C.3     1  UNL1        0.0939
      5 C          64.0457   83.5828   15.2236 C.3     1  UNL1        0.0237
      6 C          64.2944   84.9558   15.7739 C.3     1  UNL1        0.0293
      7 C          63.9083   85.9535   14.7226 C.3     1  UNL1        0.1319
      8 C          63.9944   87.4456   14.8491 C.ar    1  UNL1        0.1358
      9 N          63.4374   88.2689   15.9725 N.ar    1  UNL1       -0.2228
     10 C          63.7514   89.7086   15.6922 C.ar    1  UNL1        0.1321
     11 BR         63.3795   90.8766   16.5567 Br      1  UNL1       -0.0265
     12 C          64.5025   89.7752   14.3955 C.ar    1  UNL1        0.0818
     13 N          64.6527   88.3766   13.8745 N.ar    1  UNL1       -0.3391
     14 H          65.1041   88.1156   13.0394 H       1  UNL1        0.1672
     15 C          65.0137   91.0216   13.7357 C.ar    1  UNL1        0.0177
     16 C          64.5297   91.3980   12.3667 C.ar    1  UNL1        0.0033
     17 C          65.0409   92.6443   11.7069 C.ar    1  UNL1        0.0262
     18 C          66.0360   93.5142   12.4161 C.ar    1  UNL1        0.1641
     19 C          66.5200   93.1378   13.7851 C.ar    1  UNL1        0.0262
     20 C          66.0088   91.8915   14.4448 C.ar    1  UNL1        0.0033
     21 N          66.5472   94.7606   11.7563 N.2     1  UNL1        0.1168
     22 N          67.3978   94.6624   10.5247 N.2     1  UNL1       -0.0090
     23 N          68.2485   94.5642    9.2932 N.2     1  UNL1       -0.3278
     24 C          62.4753   84.9124   11.1194 C.3     1  UNL1        0.1512
     25 C          63.4471   82.5040   11.0490 C.2     1  UNL1        0.4021
     26 O          64.7429   83.0423   10.5189 O.2     1  UNL1       -0.2264
     27 N          62.3133   83.4391   11.3492 N.am    1  UNL1       -0.2640
     28 H          61.4627   83.0857   11.6971 H       1  UNL1        0.1532
     29 C          62.7392   80.5307   12.5835 C.3     1  UNL1        0.2573
     30 O          63.2849   81.0306   11.2788 O.3     1  UNL1       -0.4306
     31 C          62.1786   85.4982    9.7708 C.3     1  UNL1        0.0270
     32 C          63.1417   85.2992    8.6382 C.3     1  UNL1        0.0022
     33 C          60.9187   86.2832    9.5546 C.3     1  UNL1        0.0022
@<TRIPOS>UNITY_ATOM_ATTR
22 1
charge 1
23 1
charge -1
@<TRIPOS>BOND
     1    29    30    1
     2    30    25    1
     3    25    26    2
     4    25    27   am
     5    24    27    1
     6    24     1    1
     7     1     2    2
     8     1     3   am
     9     3     4    1
    10     4     5    1
    11     5     6    1
    12     6     7    1
    13     7     8    1
    14     8     9   ar
    15     9    10   ar
    16    10    11    1
    17    10    12   ar
    18    12    15    1
    19    15    16   ar
    20    16    17   ar
    21    17    18   ar
    22    18    21    1
    23    21    22    2
    24    22    23    2
    25    18    19   ar
    26    19    20   ar
    27    12    13   ar
    28    24    31    1
    29    31    32    1
    30    31    33    1
    31     7     3    1
    32    13     8   ar
    33    20    15   ar
    34    27    28    1
    35    13    14    1
@<TRIPOS>MOLECULE
*****
 33 35 0 0 0
SMALL
GASTEIGER

@<TRIPOS>ATOM
      1 C          62.9584   85.7074   12.3510 C.2     1  UNL1        0.2439
      2 O          62.9138   87.1943   12.1592 O.2     1  UNL1       -0.2731
      3 N          63.4487   85.1327   13.6469 N.am    1  UNL1       -0.2730
      4 C          63.5496   83.6742   13.9825 C.3     1  UNL1        0.0939
      5 C          64.0874   83.5557   15.3778 C.3     1  UNL1        0.0237
      6 C          64.3189   84.9410   15.9045 C.3     1  UNL1        0.0293
      7 C          63.9241   85.9155   14.8348 C.3     1  UNL1        0.1319
      8 C          63.9928   87.4106   14.9353 C.ar    1  UNL1        0.1358
      9 N          63.3990   88.2490   16.0283 N.ar    1  UNL1       -0.2228
     10 C          63.7065   89.6863   15.7289 C.ar    1  UNL1        0.1321
     11 BR         63.3014   90.8665   16.5614 Br      1  UNL1       -0.0265
     12 C          64.4903   89.7362   14.4510 C.ar    1  UNL1        0.0818
     13 N          64.6672   88.3297   13.9605 N.ar    1  UNL1       -0.3391
     14 H          65.1425   88.0577   13.1424 H       1  UNL1        0.1672
     15 C          65.0066   90.9751   13.7810 C.ar    1  UNL1        0.0177
     16 C          64.4998   91.3599   12.4227 C.ar    1  UNL1        0.0033
     17 C          65.0161   92.5987   11.7528 C.ar    1  UNL1        0.0262
     18 C          66.0391   93.4528   12.4413 C.ar    1  UNL1        0.1641
     19 C          66.5458   93.0680   13.7997 C.ar    1  UNL1        0.0262
     20 C          66.0296   91.8292   14.4695 C.ar    1  UNL1        0.0033
     21 N          66.5554   94.6916   11.7714 N.2     1  UNL1        0.1168
     22 N          67.3628   94.5823   10.5120 N.2     1  UNL1       -0.0090
     23 N          68.1702   94.4730    9.2526 N.2     1  UNL1       -0.3278
     24 C          62.5128   84.7949   11.2469 C.3     1  UNL1        0.1512
     25 C          61.7634   85.8087    8.9752 C.2     1  UNL1        0.4021
     26 O          63.1995   85.9626    8.5701 O.2     1  UNL1       -0.2264
     27 N          61.4201   85.2248   10.3136 N.am    1  UNL1       -0.2640
     28 H          60.4776   85.1238   10.5795 H       1  UNL1        0.1532
     29 C          59.6855   87.2848    8.4720 C.3     1  UNL1        0.2573
     30 O          60.6707   86.2385    8.0420 O.3     1  UNL1       -0.4306
     31 C          63.1600   83.4526   11.0762 C.3     1  UNL1        0.0270
     32 C          64.4809   83.3406   10.3742 C.3     1  UNL1        0.0022
     33 C          62.4864   82.2220   11.6075 C.3     1  UNL1        0.0022
@<TRIPOS>UNITY_ATOM_ATTR
22 1
charge 1
23 1
charge -1
@<TRIPOS>BOND
     1    29    30    1
     2    30    25    1
     3    25    26    2
     4    25    27   am
     5    24    27    1
     6    24     1    1
     7     1     2    2
     8     1     3   am
     9     3     4    1
    10     4     5    1
    11     5     6    1
    12     6     7    1
    13     7     8    1
    14     8     9   ar
    15     9    10   ar
    16    10    11    1
    17    10    12   ar
    18    12    15    1
    19    15    16   ar
    20    16    17   ar
    21    17    18   ar
    22    18    21    1
    23    21    22    2
    24    22    23    2
    25    18    19   ar
    26    19    20   ar
    27    12    13   ar
    28    24    31    1
    29    31    32    1
    30    31    33    1
    31     7     3    1
    32    13     8   ar
    33    20    15   ar
    34    27    28    1
    35    13    14    1
@<TRIPOS>MOLECULE
*****
 33 35 0 0 0
SMALL
GASTEIGER

@<TRIPOS>ATOM
      1 C          64.9459   90.7112   13.8750 C.2     1  UNL1        0.2439
      2 O          65.2296   89.5353   14.7619 O.2     1  UNL1       -0.2731
      3 N          64.0518   90.5518   12.6812 N.am    1  UNL1       -0.2730
      4 C          63.6789   91.6312   11.7085 C.3     1  UNL1        0.0939
      5 C          62.7703   91.0316   10.6766 C.3     1  UNL1        0.0237
      6 C          62.5817   89.5817   11.0114 C.3     1  UNL1        0.0293
      7 C          63.3737   89.2852   12.2503 C.3     1  UNL1        0.1319
      8 C          63.4706   87.9555   12.9376 C.ar    1  UNL1        0.1358
      9 N          63.9325   87.7223   14.3456 N.ar    1  UNL1       -0.2228
     10 C          63.8699   86.2482   14.6158 C.ar    1  UNL1        0.1321
     11 BR         64.2425   85.5709   15.9013 Br      1  UNL1       -0.0265
     12 C          63.3694   85.5703   13.3749 C.ar    1  UNL1        0.0818
     13 N          63.1226   86.6255   12.3377 N.ar    1  UNL1       -0.3391
     14 H          62.7906   86.4720   11.4237 H       1  UNL1        0.1672
     15 C          63.1536   84.0960   13.2015 C.ar    1  UNL1        0.0177
     16 C          63.7513   83.3838   12.0245 C.ar    1  UNL1        0.0033
     17 C          63.5355   81.9096   11.8511 C.ar    1  UNL1        0.0262
     18 C          62.7220   81.1476   12.8549 C.ar    1  UNL1        0.1641
     19 C          62.1243   81.8598   14.0320 C.ar    1  UNL1        0.0262
     20 C          62.3401   83.3340   14.2053 C.ar    1  UNL1        0.0033
     21 N          62.5061   79.6733   12.6815 N.2     1  UNL1        0.1168
     22 N          62.6145   79.0545   11.3195 N.2     1  UNL1       -0.0090
     23 N          62.7229   78.4356    9.9573 N.2     1  UNL1       -0.3278
     24 C          65.5562   92.0466   14.1819 C.3     1  UNL1        0.1512
     25 C          67.0490   92.9728   12.2678 C.2     1  UNL1        0.4021
     26 O          68.0764   91.9195   12.5594 O.2     1  UNL1       -0.2264
     27 N          65.7889   93.0363   13.0790 N.am    1  UNL1       -0.2640
     28 H          65.1146   93.7276   12.8876 H       1  UNL1        0.1532
     29 C          66.3231   95.0984   10.9621 C.3     1  UNL1        0.2573
     30 O          67.2816   93.9625   11.1649 O.3     1  UNL1       -0.4306
     31 C          65.9339   92.3923   15.5918 C.3     1  UNL1        0.0270
     32 C          64.8919   92.3849   16.6707 C.3     1  UNL1        0.0022
     33 C          67.3537   92.7455   15.9229 C.3     1  UNL1        0.0022
@<TRIPOS>UNITY_ATOM_ATTR
22 1
charge 1
23 1
charge -1
@<TRIPOS>BOND
     1    29    30    1
     2    30    25    1
     3    25    26    2
     4    25    27   am
     5    24    27    1
     6    24     1    1
     7     1     2    2
     8     1     3   am
     9     3     4    1
    10     4     5    1
    11     5     6    1
    12     6     7    1
    13     7     8    1
    14     8     9   ar
    15     9    10   ar
    16    10    11    1
    17    10    12   ar
    18    12    15    1
    19    15    16   ar
    20    16    17   ar
    21    17    18   ar
    22    18    21    1
    23    21    22    2
    24    22    23    2
    25    18    19   ar
    26    19    20   ar
    27    12    13   ar
    28    24    31    1
    29    31    32    1
    30    31    33    1
    31     7     3    1
    32    13     8   ar
    33    20    15   ar
    34    27    28    1
    35    13    14    1
@<TRIPOS>MOLECULE
*****
 33 35 0 0 0
SMALL
GASTEIGER

@<TRIPOS>ATOM
      1 C          64.8373   91.9946   12.3352 C.2     1  UNL1        0.2439
      2 O          64.3044   91.7788   10.9498 O.2     1  UNL1       -0.2731
      3 N          64.3138   91.1739   13.4765 N.am    1  UNL1       -0.2730
      4 C          64.7485   91.2765   14.9084 C.3     1  UNL1        0.0939
      5 C          63.9670   90.2726   15.7031 C.3     1  UNL1        0.0237
      6 C          63.0493   89.5496   14.7622 C.3     1  UNL1        0.0293
      7 C          63.2637   90.1067   13.3861 C.3     1  UNL1        0.1319
      8 C          62.5527   89.6727   12.1387 C.ar    1  UNL1        0.1358
      9 N          61.5366   90.4731   11.3791 N.ar    1  UNL1       -0.2228
     10 C          61.0890   89.6572   10.2027 C.ar    1  UNL1        0.1321
     11 BR         60.0792   90.0730    9.1744 Br      1  UNL1       -0.0265
     12 C          61.8284   88.3525   10.2352 C.ar    1  UNL1        0.0818
     13 N          62.7330   88.3621   11.4317 N.ar    1  UNL1       -0.3391
     14 H          63.3388   87.6357   11.7050 H       1  UNL1        0.1672
     15 C          61.6878   87.2344    9.2451 C.ar    1  UNL1        0.0177
     16 C          62.8623   86.3540    8.9363 C.ar    1  UNL1        0.0033
     17 C          62.7217   85.2360    7.9462 C.ar    1  UNL1        0.0262
     18 C          61.4066   84.9985    7.2649 C.ar    1  UNL1        0.1641
     19 C          60.2322   85.8789    7.5737 C.ar    1  UNL1        0.0262
     20 C          60.3728   86.9969    8.5638 C.ar    1  UNL1        0.0033
     21 N          61.2661   83.8804    6.2748 N.2     1  UNL1        0.1168
     22 N          61.4215   84.1536    4.8081 N.2     1  UNL1       -0.0090
     23 N          61.5769   84.4266    3.3413 N.2     1  UNL1       -0.3278
     24 C          65.8938   93.0310   12.5795 C.3     1  UNL1        0.1512
     25 C          66.7139   94.6222   10.6966 C.2     1  UNL1        0.4021
     26 O          67.6721   93.5693   10.2240 O.2     1  UNL1       -0.2264
     27 N          65.8248   94.3531   11.8743 N.am    1  UNL1       -0.2640
     28 H          65.1960   95.0442   12.1844 H       1  UNL1        0.1532
     29 C          67.3217   96.1231    8.6648 C.3     1  UNL1        0.2573
     30 O          66.6449   95.9443    9.9914 O.3     1  UNL1       -0.4306
     31 C          67.0193   92.7453   13.5290 C.3     1  UNL1        0.0270
     32 C          67.1545   93.5414   14.7931 C.3     1  UNL1        0.0022
     33 C          68.0098   91.6635   13.2145 C.3     1  UNL1        0.0022
@<TRIPOS>UNITY_ATOM_ATTR
22 1
charge 1
23 1
charge -1
@<TRIPOS>BOND
     1    29    30    1
     2    30    25    1
     3    25    26    2
     4    25    27   am
     5    24    27    1
     6    24     1    1
     7     1     2    2
     8     1     3   am
     9     3     4    1
    10     4     5    1
    11     5     6    1
    12     6     7    1
    13     7     8    1
    14     8     9   ar
    15     9    10   ar
    16    10    11    1
    17    10    12   ar
    18    12    15    1
    19    15    16   ar
    20    16    17   ar
    21    17    18   ar
    22    18    21    1
    23    21    22    2
    24    22    23    2
    25    18    19   ar
    26    19    20   ar
    27    12    13   ar
    28    24    31    1
    29    31    32    1
    30    31    33    1
    31     7     3    1
    32    13     8   ar
    33    20    15   ar
    34    27    28    1
    35    13    14    1
@<TRIPOS>MOLECULE
*****
 33 35 0 0 0
SMALL
GASTEIGER

@<TRIPOS>ATOM
      1 C          65.0127   92.0242   11.9555 C.2     1  UNL1        0.2439
      2 O          64.3953   91.7430   10.6177 O.2     1  UNL1       -0.2731
      3 N          64.5249   91.2983   13.1741 N.am    1  UNL1       -0.2730
      4 C          65.0428   91.4733   14.5710 C.3     1  UNL1        0.0939
      5 C          64.2716   90.5531   15.4700 C.3     1  UNL1        0.0237
      6 C          63.2770   89.8093   14.6289 C.3     1  UNL1        0.0293
      7 C          63.4336   90.2698   13.2100 C.3     1  UNL1        0.1319
      8 C          62.6384   89.7868   12.0334 C.ar    1  UNL1        0.1358
      9 N          61.5061   90.5174   11.3746 N.ar    1  UNL1       -0.2228
     10 C          61.0038   89.6704   10.2431 C.ar    1  UNL1        0.1321
     11 BR         59.8774   90.0168    9.3151 Br      1  UNL1       -0.0265
     12 C          61.8257   88.4163   10.2025 C.ar    1  UNL1        0.0818
     13 N          62.8360   88.4882   11.3090 N.ar    1  UNL1       -0.3391
     14 H          63.5103   87.8034   11.5223 H       1  UNL1        0.1672
     15 C          61.6655   87.2883    9.2268 C.ar    1  UNL1        0.0177
     16 C          62.8253   86.3856    8.9270 C.ar    1  UNL1        0.0033
     17 C          62.6651   85.2576    7.9513 C.ar    1  UNL1        0.0262
     18 C          61.3451   85.0324    7.2754 C.ar    1  UNL1        0.1641
     19 C          60.1853   85.9352    7.5752 C.ar    1  UNL1        0.0262
     20 C          60.3455   87.0631    8.5509 C.ar    1  UNL1        0.0033
     21 N          61.1849   83.9044    6.2997 N.2     1  UNL1        0.1168
     22 N          61.3889   84.1464    4.8335 N.2     1  UNL1       -0.0090
     23 N          61.5928   84.3883    3.3672 N.2     1  UNL1       -0.3278
     24 C          66.1180   93.0313   12.0747 C.3     1  UNL1        0.1512
     25 C          68.2086   92.4362   13.4977 C.2     1  UNL1        0.4021
     26 O          68.7461   91.6139   12.3642 O.2     1  UNL1       -0.2264
     27 N          66.8945   93.1449   13.3530 N.am    1  UNL1       -0.2640
     28 H          66.5418   93.6846   14.0969 H       1  UNL1        0.1532
     29 C          68.2728   92.4857   16.0945 C.3     1  UNL1        0.2573
     30 O          68.9851   92.5499   14.7760 O.3     1  UNL1       -0.4306
     31 C          66.4466   93.9248   10.9156 C.3     1  UNL1        0.0270
     32 C          67.3308   93.4261    9.8113 C.3     1  UNL1        0.0022
     33 C          65.8911   95.3171   10.8606 C.3     1  UNL1        0.0022
@<TRIPOS>UNITY_ATOM_ATTR
22 1
charge 1
23 1
charge -1
@<TRIPOS>BOND
     1    29    30    1
     2    30    25    1
     3    25    26    2
     4    25    27   am
     5    24    27    1
     6    24     1    1
     7     1     2    2
     8     1     3   am
     9     3     4    1
    10     4     5    1
    11     5     6    1
    12     6     7    1
    13     7     8    1
    14     8     9   ar
    15     9    10   ar
    16    10    11    1
    17    10    12   ar
    18    12    15    1
    19    15    16   ar
    20    16    17   ar
    21    17    18   ar
    22    18    21    1
    23    21    22    2
    24    22    23    2
    25    18    19   ar
    26    19    20   ar
    27    12    13   ar
    28    24    31    1
    29    31    32    1
    30    31    33    1
    31     7     3    1
    32    13     8   ar
    33    20    15   ar
    34    27    28    1
    35    13    14    1
@<TRIPOS>MOLECULE
*****
 33 35 0 0 0
SMALL
GASTEIGER

@<TRIPOS>ATOM
      1 C          65.0585   91.7359   12.9792 C.2     1  UNL1        0.2439
      2 O          64.7088   91.1772   11.6318 O.2     1  UNL1       -0.2731
      3 N          64.4609   91.1369   14.2177 N.am    1  UNL1       -0.2730
      4 C          64.7155   91.5866   15.6259 C.3     1  UNL1        0.0939
      5 C          63.9157   90.7106   16.5440 C.3     1  UNL1        0.0237
      6 C          63.1667   89.7195   15.7033 C.3     1  UNL1        0.0293
      7 C          63.5037   89.9830   14.2656 C.3     1  UNL1        0.1319
      8 C          62.9761   89.2256   13.0833 C.ar    1  UNL1        0.1358
      9 N          63.2151   87.7745   12.7876 N.ar    1  UNL1       -0.2228
     10 C          62.5035   87.4383   11.5106 C.ar    1  UNL1        0.1321
     11 BR         62.4757   86.0948   10.8442 Br      1  UNL1       -0.0265
     12 C          61.8248   88.6815   11.0171 C.ar    1  UNL1        0.0818
     13 N          62.1168   89.7861   11.9890 N.ar    1  UNL1       -0.3391
     14 H          61.8001   90.7158   11.9207 H       1  UNL1        0.1672
     15 C          60.9989   88.7996    9.7704 C.ar    1  UNL1        0.0177
     16 C          60.2557   87.6062    9.2473 C.ar    1  UNL1        0.0033
     17 C          59.4299   87.7243    8.0007 C.ar    1  UNL1        0.0262
     18 C          59.3473   89.0356    7.2772 C.ar    1  UNL1        0.1641
     19 C          60.0905   90.2290    7.8002 C.ar    1  UNL1        0.0262
     20 C          60.9163   90.1109    9.0468 C.ar    1  UNL1        0.0033
     21 N          58.5214   89.1536    6.0305 N.2     1  UNL1        0.1168
     22 N          58.2439   90.5042    5.4397 N.2     1  UNL1       -0.0090
     23 N          57.9664   91.8547    4.8489 N.2     1  UNL1       -0.3278
     24 C          66.0059   92.8937   13.0881 C.3     1  UNL1        0.1512
     25 C          66.3578   94.5279   11.0992 C.2     1  UNL1        0.4021
     26 O          67.3401   93.5731   10.4883 O.2     1  UNL1       -0.2264
     27 N          65.6907   94.1883   12.3991 N.am    1  UNL1       -0.2640
     28 H          65.0460   94.8150   12.8001 H       1  UNL1        0.1532
     29 C          67.1539   96.7341    9.9815 C.3     1  UNL1        0.2573
     30 O          66.0424   95.8225   10.4103 O.3     1  UNL1       -0.4306
     31 C          67.2687   92.7569   13.8860 C.3     1  UNL1        0.0270
     32 C          67.4990   93.6330   15.0817 C.3     1  UNL1        0.0022
     33 C          68.3013   91.7441   13.4884 C.3     1  UNL1        0.0022
@<TRIPOS>UNITY_ATOM_ATTR
22 1
charge 1
23 1
charge -1
@<TRIPOS>BOND
     1    29    30    1
     2    30    25    1
     3    25    26    2
     4    25    27   am
     5    24    27    1
     6    24     1    1
     7     1     2    2
     8     1     3   am
     9     3     4    1
    10     4     5    1
    11     5     6    1
    12     6     7    1
    13     7     8    1
    14     8     9   ar
    15     9    10   ar
    16    10    11    1
    17    10    12   ar
    18    12    15    1
    19    15    16   ar
    20    16    17   ar
    21    17    18   ar
    22    18    21    1
    23    21    22    2
    24    22    23    2
    25    18    19   ar
    26    19    20   ar
    27    12    13   ar
    28    24    31    1
    29    31    32    1
    30    31    33    1
    31     7     3    1
    32    13     8   ar
    33    20    15   ar
    34    27    28    1
    35    13    14    1
@<TRIPOS>MOLECULE
*****
 33 35 0 0 0
SMALL
GASTEIGER

@<TRIPOS>ATOM
      1 C          65.9395   91.7954   13.8717 C.2     1  UNL1        0.2439
      2 O          65.8300   90.7788   12.7742 O.2     1  UNL1       -0.2731
      3 N          65.1122   91.6497   15.1144 N.am    1  UNL1       -0.2730
      4 C          65.1148   92.5818   16.2896 C.3     1  UNL1        0.0939
      5 C          64.1413   92.0544   17.3016 C.3     1  UNL1        0.0237
      6 C          63.5371   90.7963   16.7518 C.3     1  UNL1        0.0293
      7 C          64.1372   90.5462   15.4001 C.3     1  UNL1        0.1319
      8 C          63.8183   89.3948   14.4932 C.ar    1  UNL1        0.1358
      9 N          64.2359   87.9688   14.6985 N.ar    1  UNL1       -0.2228
     10 C          63.7014   87.1598   13.5540 C.ar    1  UNL1        0.1321
     11 BR         63.8831   85.6840   13.3568 Br      1  UNL1       -0.0265
     12 C          62.9535   88.0859   12.6413 C.ar    1  UNL1        0.0818
     13 N          63.0256   89.4671   13.2218 N.ar    1  UNL1       -0.3391
     14 H          62.6234   90.2787   12.8360 H       1  UNL1        0.1672
     15 C          62.2557   87.6986   11.3712 C.ar    1  UNL1        0.0177
     16 C          62.1109   86.2509   11.0063 C.ar    1  UNL1        0.0033
     17 C          61.4132   85.8638    9.7362 C.ar    1  UNL1        0.0262
     18 C          60.8603   86.9243    8.8309 C.ar    1  UNL1        0.1641
     19 C          61.0051   88.3720    9.1957 C.ar    1  UNL1        0.0262
     20 C          61.7028   88.7592   10.4659 C.ar    1  UNL1        0.0033
     21 N          60.1626   86.5371    7.5607 N.2     1  UNL1        0.1168
     22 N          60.6231   85.3368    6.7879 N.2     1  UNL1       -0.0090
     23 N          61.0836   84.1365    6.0151 N.2     1  UNL1       -0.3278
     24 C          66.8764   92.9579   13.7265 C.3     1  UNL1        0.1512
     25 C          66.7704   94.1426   11.4166 C.2     1  UNL1        0.4021
     26 O          67.4514   92.9664   10.7821 O.2     1  UNL1       -0.2264
     27 N          66.4829   94.1383   12.8888 N.am    1  UNL1       -0.2640
     28 H          66.0359   94.9103   13.3053 H       1  UNL1        0.1532
     29 C          66.8982   95.4565    9.1789 C.3     1  UNL1        0.2573
     30 O          66.3768   95.3230   10.5791 O.3     1  UNL1       -0.4306
     31 C          68.2068   92.9398   14.4190 C.3     1  UNL1        0.0270
     32 C          69.3399   92.1412   13.8459 C.3     1  UNL1        0.0022
     33 C          68.4044   93.7204   15.6846 C.3     1  UNL1        0.0022
@<TRIPOS>UNITY_ATOM_ATTR
22 1
charge 1
23 1
charge -1
@<TRIPOS>BOND
     1    29    30    1
     2    30    25    1
     3    25    26    2
     4    25    27   am
     5    24    27    1
     6    24     1    1
     7     1     2    2
     8     1     3   am
     9     3     4    1
    10     4     5    1
    11     5     6    1
    12     6     7    1
    13     7     8    1
    14     8     9   ar
    15     9    10   ar
    16    10    11    1
    17    10    12   ar
    18    12    15    1
    19    15    16   ar
    20    16    17   ar
    21    17    18   ar
    22    18    21    1
    23    21    22    2
    24    22    23    2
    25    18    19   ar
    26    19    20   ar
    27    12    13   ar
    28    24    31    1
    29    31    32    1
    30    31    33    1
    31     7     3    1
    32    13     8   ar
    33    20    15   ar
    34    27    28    1
    35    13    14    1
@<TRIPOS>MOLECULE
*****
 33 35 0 0 0
SMALL
GASTEIGER

@<TRIPOS>ATOM
      1 C          65.2358   91.2674   12.9995 C.2     1  UNL1        0.2439
      2 O          65.5530   90.2054   14.0101 O.2     1  UNL1       -0.2731
      3 N          64.1777   91.0254   11.9642 N.am    1  UNL1       -0.2730
      4 C          63.7536   91.9884   10.8950 C.3     1  UNL1        0.0939
      5 C          62.6717   91.3361   10.0863 C.3     1  UNL1        0.0237
      6 C          62.4271   89.9701   10.6556 C.3     1  UNL1        0.0293
      7 C          63.3578   89.7781   11.8161 C.3     1  UNL1        0.1319
      8 C          63.4522   88.5537   12.6775 C.ar    1  UNL1        0.1358
      9 N          63.8197   88.5247   14.1315 N.ar    1  UNL1       -0.2228
     10 C          63.7902   87.0964   14.5887 C.ar    1  UNL1        0.1321
     11 BR         64.0933   86.6077   15.9741 Br      1  UNL1       -0.0265
     12 C          63.4044   86.2426   13.4173 C.ar    1  UNL1        0.0818
     13 N          63.1955   87.1433   12.2361 N.ar    1  UNL1       -0.3391
     14 H          62.9356   86.8586   11.3302 H       1  UNL1        0.1672
     15 C          63.2540   84.7501   13.4256 C.ar    1  UNL1        0.0177
     16 C          62.4277   84.0855   14.4864 C.ar    1  UNL1        0.0033
     17 C          62.2773   82.5931   14.4946 C.ar    1  UNL1        0.0262
     18 C          62.9532   81.7654   13.4420 C.ar    1  UNL1        0.1641
     19 C          63.7795   82.4300   12.3812 C.ar    1  UNL1        0.0262
     20 C          63.9299   83.9224   12.3730 C.ar    1  UNL1        0.0033
     21 N          62.8027   80.2729   13.4503 N.2     1  UNL1        0.1168
     22 N          62.7322   79.5190   12.1555 N.2     1  UNL1       -0.0090
     23 N          62.6617   78.7651   10.8606 N.2     1  UNL1       -0.3278
     24 C          65.9766   92.5715   13.0241 C.3     1  UNL1        0.1512
     25 C          67.6828   93.1978   14.8806 C.2     1  UNL1        0.4021
     26 O          68.7694   92.4999   14.1175 O.2     1  UNL1       -0.2264
     27 N          66.2864   93.2335   14.3339 N.am    1  UNL1       -0.2640
     28 H          65.5733   93.6916   14.8347 H       1  UNL1        0.1532
     29 C          69.3039   94.5618   16.3844 C.3     1  UNL1        0.2573
     30 O          67.9925   93.8599   16.1904 O.3     1  UNL1       -0.4306
     31 C          66.4077   93.2134   11.7387 C.3     1  UNL1        0.0270
     32 C          66.0348   94.6372   11.4495 C.3     1  UNL1        0.0022
     33 C          67.2117   92.4316   10.7425 C.3     1  UNL1        0.0022
@<TRIPOS>UNITY_ATOM_ATTR
22 1
charge 1
23 1
charge -1
@<TRIPOS>BOND
     1    29    30    1
     2    30    25    1
     3    25    26    2
     4    25    27   am
     5    24    27    1
     6    24     1    1
     7     1     2    2
     8     1     3   am
     9     3     4    1
    10     4     5    1
    11     5     6    1
    12     6     7    1
    13     7     8    1
    14     8     9   ar
    15     9    10   ar
    16    10    11    1
    17    10    12   ar
    18    12    15    1
    19    15    16   ar
    20    16    17   ar
    21    17    18   ar
    22    18    21    1
    23    21    22    2
    24    22    23    2
    25    18    19   ar
    26    19    20   ar
    27    12    13   ar
    28    24    31    1
    29    31    32    1
    30    31    33    1
    31     7     3    1
    32    13     8   ar
    33    20    15   ar
    34    27    28    1
    35    13    14    1
@<TRIPOS>MOLECULE
*****
 33 35 0 0 0
SMALL
GASTEIGER

@<TRIPOS>ATOM
      1 C          61.2564   89.1132   11.7221 C.2     1  UNL1        0.2439
      2 O          61.0888   87.6712   12.0995 O.2     1  UNL1       -0.2731
      3 N          62.4928   89.8570   12.1321 N.am    1  UNL1       -0.2730
      4 C          62.7985   91.2939   11.8290 C.3     1  UNL1        0.0939
      5 C          64.1352   91.6195   12.4266 C.3     1  UNL1        0.0237
      6 C          64.6556   90.3838   13.0991 C.3     1  UNL1        0.0293
      7 C          63.6406   89.2946   12.9170 C.3     1  UNL1        0.1319
      8 C          63.7534   87.8895   13.4299 C.ar    1  UNL1        0.1358
      9 N          64.2712   87.4817   14.7774 N.ar    1  UNL1       -0.2228
     10 C          64.2061   85.9857   14.8656 C.ar    1  UNL1        0.1321
     11 BR         64.6254   85.1528   16.0405 Br      1  UNL1       -0.0265
     12 C          63.6481   85.4690   13.5727 C.ar    1  UNL1        0.0818
     13 N          63.3684   86.6456   12.6854 N.ar    1  UNL1       -0.3391
     14 H          62.9972   86.6080   11.7744 H       1  UNL1        0.1672
     15 C          63.4114   84.0284   13.2277 C.ar    1  UNL1        0.0177
     16 C          62.3712   83.2411   13.9678 C.ar    1  UNL1        0.0033
     17 C          62.1345   81.8006   13.6227 C.ar    1  UNL1        0.0262
     18 C          62.9382   81.1476   12.5375 C.ar    1  UNL1        0.1641
     19 C          63.9784   81.9350   11.7974 C.ar    1  UNL1        0.0262
     20 C          64.2151   83.3754   12.1424 C.ar    1  UNL1        0.0033
     21 N          62.7015   79.7071   12.1925 N.2     1  UNL1        0.1168
     22 N          62.7734   79.2566   10.7636 N.2     1  UNL1       -0.0090
     23 N          62.8453   78.8060    9.3346 N.2     1  UNL1       -0.3278
     24 C          60.1875   89.8116   10.9348 C.3     1  UNL1        0.1512
     25 C          59.9500   88.9278    8.5032 C.2     1  UNL1        0.4021
     26 O          59.3795   87.6428    9.0260 O.2     1  UNL1       -0.2264
     27 N          60.3540   90.0122    9.4576 N.am    1  UNL1       -0.2640
     28 H          60.7285   90.8555    9.1145 H       1  UNL1        0.1532
     29 C          59.0739   89.8756    6.2484 C.3     1  UNL1        0.2573
     30 O          60.1166   89.1285    7.0261 O.3     1  UNL1       -0.4306
     31 C          58.9521   90.3093   11.6247 C.3     1  UNL1        0.0270
     32 C          58.1099   89.3640   12.4292 C.3     1  UNL1        0.0022
     33 C          58.5587   91.7523   11.5101 C.3     1  UNL1        0.0022
@<TRIPOS>UNITY_ATOM_ATTR
22 1
charge 1
23 1
charge -1
@<TRIPOS>BOND
     1    29    30    1
     2    30    25    1
     3    25    26    2
     4    25    27   am
     5    24    27    1
     6    24     1    1
     7     1     2    2
     8     1     3   am
     9     3     4    1
    10     4     5    1
    11     5     6    1
    12     6     7    1
    13     7     8    1
    14     8     9   ar
    15     9    10   ar
    16    10    11    1
    17    10    12   ar
    18    12    15    1
    19    15    16   ar
    20    16    17   ar
    21    17    18   ar
    22    18    21    1
    23    21    22    2
    24    22    23    2
    25    18    19   ar
    26    19    20   ar
    27    12    13   ar
    28    24    31    1
    29    31    32    1
    30    31    33    1
    31     7     3    1
    32    13     8   ar
    33    20    15   ar
    34    27    28    1
    35    13    14    1
