@<TRIPOS>MOLECULE
*****
 57 62 0 0 0
SMALL
GASTEIGER

@<TRIPOS>ATOM
      1 C          62.1075   86.9380   11.4079 C.3     1  UNL1        0.0760
      2 C          62.6425   89.4619   11.1017 C.2     1  UNL1        0.2406
      3 O          61.4152   89.6192   10.2537 O.2     1  UNL1       -0.2733
      4 N          62.9886   88.1213   11.6788 N.am    1  UNL1       -0.3043
      5 H          63.7941   88.0181   12.2353 H       1  UNL1        0.1494
      6 N          63.7951   91.3423   15.3174 N.am    1  UNL1       -0.2566
      7 C          63.3086   90.8153   16.6348 C.3     1  UNL1        0.1168
      8 C          63.3729   90.6765   14.0412 C.2     1  UNL1        0.3079
      9 O          62.4642   89.4839   14.0826 O.2     1  UNL1       -0.2523
     10 N          63.8594   91.2035   12.7238 N.am    1  UNL1       -0.2558
     11 C          64.7670   92.3813   12.5262 C.3     1  UNL1        0.1113
     12 C          64.9923   92.5508   11.0529 C.3     1  UNL1        0.0797
     13 C          64.2238   91.4779   10.3400 C.3     1  UNL1        0.0469
     14 C          63.5237   90.6451   11.3726 C.3     1  UNL1        0.1544
     15 N          65.8376   93.6079   10.4061 N.3     1  UNL1       -0.2681
     16 C          65.4077   95.0442   10.4522 C.3     1  UNL1        0.1046
     17 C          66.2530   96.1011    9.8053 C.3     1  UNL1        0.1595
     18 O          67.5281   95.7217    9.1125 O.3     1  UNL1       -0.3508
     19 C          67.9580   94.2854    9.0664 C.3     1  UNL1        0.1595
     20 C          67.1127   93.2284    9.7132 C.3     1  UNL1        0.1046
     21 C          64.7039   92.5349   15.2760 C.3     1  UNL1        0.1413
     22 C          68.5477   92.6451   15.8035 C.ar    1  UNL1        0.0875
     23 N          67.1740   93.1904   16.0595 N.ar    1  UNL1       -0.2453
     24 C          66.1916   92.3456   15.3038 C.ar    1  UNL1        0.0858
     25 C          66.9582   91.2781   14.5807 C.ar    1  UNL1        0.0530
     26 S          68.4143   91.4632   14.8895 S.2     1  UNL1       -0.0705
     27 C          70.7018   92.3157   17.2182 C.3     1  UNL1        0.0069
     28 C          69.8298   93.1866   16.3632 C.3     1  UNL1        0.0465
     29 C          70.2397   94.5989   16.0680 C.3     1  UNL1        0.0069
     30 C          62.2421   85.6968   12.2392 C.3     1  UNL1        0.0216
     31 C          63.4297   84.7983   12.0587 C.3     1  UNL1        0.0217
     32 C          64.1500   84.2572   13.2580 C.3     1  UNL1        0.0792
     33 N          64.1934   82.7779   13.5025 N.am    1  UNL1       -0.2720
     34 C          63.0044   82.0802   14.0936 C.2     1  UNL1        0.4019
     35 O          61.7718   82.8618   14.4403 O.2     1  UNL1       -0.2264
     36 H          65.0023   82.2649   13.2749 H       1  UNL1        0.1527
     37 O          63.0478   80.6009   14.3380 O.3     1  UNL1       -0.4291
     38 C          62.3501   79.6644   13.3967 C.3     1  UNL1        0.2447
     39 C          62.6188   79.7441   11.9231 C.ar    1  UNL1        0.0714
     40 C          62.9266   80.9917   11.1492 C.ar    1  UNL1        0.1053
     41 N          63.1250   80.6089    9.7125 N.ar    1  UNL1       -0.2350
     42 C          62.9398   79.1247    9.5984 C.ar    1  UNL1        0.1343
     43 S          62.6270   78.5902   10.9646 S.2     1  UNL1       -0.0652
     44 C          64.8268   85.1954   14.2129 C.3     1  UNL1        0.0460
     45 C          64.0491   85.8092   15.3391 C.ar    1  UNL1       -0.0205
     46 C          63.1989   84.9447   16.2221 C.ar    1  UNL1       -0.0042
     47 C          62.4212   85.5585   17.3484 C.ar    1  UNL1       -0.0003
     48 C          62.4937   87.0369   17.5917 C.ar    1  UNL1       -0.0000
     49 C          63.3440   87.9014   16.7087 C.ar    1  UNL1       -0.0003
     50 C          64.1217   87.2876   15.5824 C.ar    1  UNL1       -0.0042
     51 C          61.0917   86.9961   10.3056 C.3     1  UNL1        0.0459
     52 C          61.3239   86.2400    9.0311 C.ar    1  UNL1       -0.0205
     53 C          60.1981   86.0441    8.0595 C.ar    1  UNL1       -0.0042
     54 C          60.4303   85.2880    6.7850 C.ar    1  UNL1       -0.0003
     55 C          61.7885   84.7277    6.4821 C.ar    1  UNL1       -0.0000
     56 C          62.9143   84.9236    7.4538 C.ar    1  UNL1       -0.0003
     57 C          62.6820   85.6797    8.7283 C.ar    1  UNL1       -0.0042
@<TRIPOS>BOND
     1    27    28    1
     2    28    29    1
     3    28    22    1
     4    22    23   ar
     5    23    24   ar
     6    24    21    1
     7    21     6    1
     8     6     7    1
     9     6     8   am
    10     8     9    2
    11     8    10   am
    12    10    11    1
    13    11    12    1
    14    12    15    1
    15    15    16    1
    16    16    17    1
    17    17    18    1
    18    18    19    1
    19    19    20    1
    20    12    13    1
    21    13    14    1
    22    14     2    1
    23     2     3    2
    24     2     4   am
    25     4     1    1
    26     1    30    1
    27    30    31    1
    28    32    31    1
    29    32    44    1
    30    44    45    1
    31    45    46   ar
    32    46    47   ar
    33    47    48   ar
    34    48    49   ar
    35    49    50   ar
    36    32    33    1
    37    33    34   am
    38    34    35    2
    39    34    37    1
    40    37    38    1
    41    38    39    1
    42    39    40   ar
    43    40    41   ar
    44    41    42   ar
    45    42    43   ar
    46     1    51    1
    47    51    52    1
    48    52    53   ar
    49    53    54   ar
    50    54    55   ar
    51    55    56   ar
    52    56    57   ar
    53    24    25   ar
    54    25    26   ar
    55    26    22   ar
    56    14    10    1
    57    50    45   ar
    58    43    39   ar
    59    57    52   ar
    60    20    15    1
    61     4     5    1
    62    33    36    1
@<TRIPOS>MOLECULE
*****
 57 62 0 0 0
SMALL
GASTEIGER

@<TRIPOS>ATOM
      1 C          62.0266   87.1680   11.0245 C.3     1  UNL1        0.0760
      2 C          62.6042   89.6957   10.8612 C.2     1  UNL1        0.2406
      3 O          61.3954   89.9164   10.0009 O.2     1  UNL1       -0.2733
      4 N          62.9198   88.3215   11.3730 N.am    1  UNL1       -0.3043
      5 H          63.7132   88.1767   11.9377 H       1  UNL1        0.1494
      6 N          63.7384   91.3088   15.1911 N.am    1  UNL1       -0.2566
      7 C          63.2322   90.7115   16.4706 C.3     1  UNL1        0.1168
      8 C          63.3205   90.7252   13.8740 C.2     1  UNL1        0.3079
      9 O          62.3965   89.5441   13.8364 O.2     1  UNL1       -0.2523
     10 N          63.8267   91.3225   12.5945 N.am    1  UNL1       -0.2558
     11 C          64.7510   92.4978   12.4753 C.3     1  UNL1        0.1113
     12 C          64.9930   92.7511   11.0168 C.3     1  UNL1        0.0797
     13 C          64.2182   91.7322   10.2346 C.3     1  UNL1        0.0469
     14 C          63.4974   90.8493   11.2097 C.3     1  UNL1        0.1544
     15 N          65.8579   93.8332   10.4414 N.3     1  UNL1       -0.2681
     16 C          65.5352   95.2733   10.7096 C.3     1  UNL1        0.1046
     17 C          66.4001   96.3554   10.1342 C.3     1  UNL1        0.1595
     18 O          67.5876   95.9973    9.2906 O.3     1  UNL1       -0.3508
     19 C          67.9102   94.5572    9.0223 C.3     1  UNL1        0.1595
     20 C          67.0453   93.4752    9.5977 C.3     1  UNL1        0.1046
     21 C          64.6624   92.4898   15.2287 C.3     1  UNL1        0.1413
     22 C          68.5048   92.5416   15.7754 C.ar    1  UNL1        0.0875
     23 N          67.1375   93.1034   16.0302 N.ar    1  UNL1       -0.2453
     24 C          66.1472   92.2796   15.2617 C.ar    1  UNL1        0.0858
     25 C          66.9025   91.2086   14.5318 C.ar    1  UNL1        0.0530
     26 S          68.3595   91.3705   14.8494 S.2     1  UNL1       -0.0705
     27 C          70.2172   94.4723   16.0752 C.3     1  UNL1        0.0069
     28 C          69.7914   93.0598   16.3465 C.3     1  UNL1        0.0465
     29 C          70.6522   92.1656   17.1887 C.3     1  UNL1        0.0069
     30 C          62.0256   85.9354   11.8793 C.3     1  UNL1        0.0216
     31 C          63.1001   84.9028   11.7077 C.3     1  UNL1        0.0217
     32 C          63.5266   84.0631   12.8751 C.3     1  UNL1        0.0792
     33 N          63.0237   82.6564   13.0106 N.am    1  UNL1       -0.2720
     34 C          63.3603   81.6355   11.9645 C.2     1  UNL1        0.4019
     35 O          64.2000   82.0212   10.7828 O.2     1  UNL1       -0.2264
     36 H          62.4726   82.4032   13.7862 H       1  UNL1        0.1527
     37 O          62.8574   80.2288   12.1000 O.3     1  UNL1       -0.4291
     38 C          62.4328   79.7101   13.4419 C.3     1  UNL1        0.2447
     39 C          60.9969   79.8096   13.8644 C.ar    1  UNL1        0.0714
     40 C          60.2248   81.0788   14.0719 C.ar    1  UNL1        0.1053
     41 N          58.8318   80.7109   14.4893 N.ar    1  UNL1       -0.2350
     42 C          58.7430   79.2144   14.5397 C.ar    1  UNL1        0.1343
     43 S          60.0811   78.6573   14.1535 S.2     1  UNL1       -0.0652
     44 C          64.4561   84.6299   13.9069 C.3     1  UNL1        0.0460
     45 C          63.9123   85.4639   15.0289 C.ar    1  UNL1       -0.0205
     46 C          64.3045   86.9067   15.1492 C.ar    1  UNL1       -0.0042
     47 C          63.7607   87.7408   16.2711 C.ar    1  UNL1       -0.0003
     48 C          62.8246   87.1320   17.2727 C.ar    1  UNL1       -0.0000
     49 C          62.4324   85.6892   17.1524 C.ar    1  UNL1       -0.0003
     50 C          62.9762   84.8551   16.0304 C.ar    1  UNL1       -0.0042
     51 C          61.1344   87.2471    9.8213 C.3     1  UNL1        0.0459
     52 C          61.3556   86.3219    8.6615 C.ar    1  UNL1       -0.0205
     53 C          62.7197   85.7530    8.4054 C.ar    1  UNL1       -0.0042
     54 C          62.9409   84.8278    7.2457 C.ar    1  UNL1       -0.0003
     55 C          61.7979   84.4715    6.3419 C.ar    1  UNL1       -0.0000
     56 C          60.4338   85.0404    6.5979 C.ar    1  UNL1       -0.0003
     57 C          60.2126   85.9656    7.7578 C.ar    1  UNL1       -0.0042
@<TRIPOS>BOND
     1    27    28    1
     2    28    29    1
     3    28    22    1
     4    22    23   ar
     5    23    24   ar
     6    24    21    1
     7    21     6    1
     8     6     7    1
     9     6     8   am
    10     8     9    2
    11     8    10   am
    12    10    11    1
    13    11    12    1
    14    12    15    1
    15    15    16    1
    16    16    17    1
    17    17    18    1
    18    18    19    1
    19    19    20    1
    20    12    13    1
    21    13    14    1
    22    14     2    1
    23     2     3    2
    24     2     4   am
    25     4     1    1
    26     1    30    1
    27    30    31    1
    28    32    31    1
    29    32    44    1
    30    44    45    1
    31    45    46   ar
    32    46    47   ar
    33    47    48   ar
    34    48    49   ar
    35    49    50   ar
    36    32    33    1
    37    33    34   am
    38    34    35    2
    39    34    37    1
    40    37    38    1
    41    38    39    1
    42    39    40   ar
    43    40    41   ar
    44    41    42   ar
    45    42    43   ar
    46     1    51    1
    47    51    52    1
    48    52    53   ar
    49    53    54   ar
    50    54    55   ar
    51    55    56   ar
    52    56    57   ar
    53    24    25   ar
    54    25    26   ar
    55    26    22   ar
    56    14    10    1
    57    50    45   ar
    58    43    39   ar
    59    57    52   ar
    60    20    15    1
    61     4     5    1
    62    33    36    1
@<TRIPOS>MOLECULE
*****
 57 62 0 0 0
SMALL
GASTEIGER

@<TRIPOS>ATOM
      1 C          60.7306   94.5931    0.1604 C.3     1  UNL1        0.0760
      2 C          58.6654   95.8649   -0.7708 C.2     1  UNL1        0.2406
      3 O          58.7653   96.8514    0.3548 O.2     1  UNL1       -0.2733
      4 N          59.6480   94.7358   -0.8680 N.am    1  UNL1       -0.3043
      5 H          59.5824   94.0884   -1.6068 H       1  UNL1        0.1494
      6 N          59.1532   96.6736   -5.4339 N.am    1  UNL1       -0.2566
      7 C          60.4743   96.8311   -6.1267 C.3     1  UNL1        0.1168
      8 C          59.1067   96.4205   -3.9561 C.2     1  UNL1        0.3079
      9 O          60.3813   96.3251   -3.1711 O.2     1  UNL1       -0.2523
     10 N          57.7856   96.2630   -3.2634 N.am    1  UNL1       -0.2558
     11 C          56.4355   96.3332   -3.9131 C.3     1  UNL1        0.1113
     12 C          55.3982   96.1212   -2.8505 C.3     1  UNL1        0.0797
     13 C          56.1072   95.9200   -1.5441 C.3     1  UNL1        0.0469
     14 C          57.5828   96.0076   -1.7992 C.3     1  UNL1        0.1544
     15 N          53.9125   96.1120   -3.0580 N.3     1  UNL1       -0.2681
     16 C          53.3403   96.4642   -4.3990 C.3     1  UNL1        0.1046
     17 C          51.8548   96.4550   -4.6064 C.3     1  UNL1        0.1595
     18 O          50.9415   96.0936   -3.4727 O.3     1  UNL1       -0.3508
     19 C          51.5137   95.7414   -2.1316 C.3     1  UNL1        0.1595
     20 C          52.9992   95.7506   -1.9243 C.3     1  UNL1        0.1046
     21 C          57.8786   96.7690   -6.2189 C.3     1  UNL1        0.1413
     22 C          56.3250   93.2285   -6.5596 C.ar    1  UNL1        0.0875
     23 N          57.3105   94.1724   -5.9368 N.ar    1  UNL1       -0.2453
     24 C          57.1066   95.5262   -6.5496 C.ar    1  UNL1        0.0858
     25 C          55.9951   95.4190   -7.5512 C.ar    1  UNL1        0.0530
     26 S          55.5121   93.9989   -7.5574 S.2     1  UNL1       -0.0705
     27 C          55.1826   90.9350   -6.9898 C.3     1  UNL1        0.0069
     28 C          56.1783   91.7701   -6.2407 C.3     1  UNL1        0.0465
     29 C          57.0273   91.1468   -5.1727 C.3     1  UNL1        0.0069
     30 C          60.4511   93.8786    1.4493 C.3     1  UNL1        0.0216
     31 C          60.7834   92.4223    1.5870 C.3     1  UNL1        0.0217
     32 C          61.8339   91.9816    2.5627 C.3     1  UNL1        0.0792
     33 N          61.4419   91.5641    3.9491 N.am    1  UNL1       -0.2720
     34 C          60.0241   91.7301    4.4096 C.2     1  UNL1        0.4019
     35 O          58.9981   92.3136    3.4838 O.2     1  UNL1       -0.2264
     36 H          62.1152   91.1812    4.5567 H       1  UNL1        0.1527
     37 O          59.6321   91.3126    5.7960 O.3     1  UNL1       -0.4291
     38 C          59.0081   89.9681    6.0262 C.3     1  UNL1        0.2447
     39 C          59.4187   89.1434    7.2100 C.ar    1  UNL1        0.0714
     40 C          60.0538   89.6601    8.4668 C.ar    1  UNL1        0.1053
     41 N          60.2939   88.4934    9.3784 N.ar    1  UNL1       -0.2350
     42 C          59.8072   87.2555    8.6849 C.ar    1  UNL1        0.1343
     43 S          59.2663   87.6572    7.3448 S.2     1  UNL1       -0.0652
     44 C          63.2764   91.9584    2.1521 C.3     1  UNL1        0.0460
     45 C          63.9960   93.2435    1.8676 C.ar    1  UNL1       -0.0205
     46 C          65.0225   93.3024    0.7755 C.ar    1  UNL1       -0.0042
     47 C          65.7421   94.5874    0.4910 C.ar    1  UNL1       -0.0003
     48 C          65.4351   95.8136    1.2987 C.ar    1  UNL1       -0.0000
     49 C          64.4086   95.7547    2.3908 C.ar    1  UNL1       -0.0003
     50 C          63.6890   94.4696    2.6753 C.ar    1  UNL1       -0.0042
     51 C          62.0927   95.1649   -0.1002 C.3     1  UNL1        0.0459
     52 C          62.8243   94.8147   -1.3619 C.ar    1  UNL1       -0.0205
     53 C          62.8423   93.3962   -1.8494 C.ar    1  UNL1       -0.0042
     54 C          63.5739   93.0460   -3.1112 C.ar    1  UNL1       -0.0003
     55 C          64.2875   94.1143   -3.8855 C.ar    1  UNL1       -0.0000
     56 C          64.2695   95.5328   -3.3981 C.ar    1  UNL1       -0.0003
     57 C          63.5378   95.8830   -2.1362 C.ar    1  UNL1       -0.0042
@<TRIPOS>BOND
     1    27    28    1
     2    28    29    1
     3    28    22    1
     4    22    23   ar
     5    23    24   ar
     6    24    21    1
     7    21     6    1
     8     6     7    1
     9     6     8   am
    10     8     9    2
    11     8    10   am
    12    10    11    1
    13    11    12    1
    14    12    15    1
    15    15    16    1
    16    16    17    1
    17    17    18    1
    18    18    19    1
    19    19    20    1
    20    12    13    1
    21    13    14    1
    22    14     2    1
    23     2     3    2
    24     2     4   am
    25     4     1    1
    26     1    30    1
    27    30    31    1
    28    32    31    1
    29    32    44    1
    30    44    45    1
    31    45    46   ar
    32    46    47   ar
    33    47    48   ar
    34    48    49   ar
    35    49    50   ar
    36    32    33    1
    37    33    34   am
    38    34    35    2
    39    34    37    1
    40    37    38    1
    41    38    39    1
    42    39    40   ar
    43    40    41   ar
    44    41    42   ar
    45    42    43   ar
    46     1    51    1
    47    51    52    1
    48    52    53   ar
    49    53    54   ar
    50    54    55   ar
    51    55    56   ar
    52    56    57   ar
    53    24    25   ar
    54    25    26   ar
    55    26    22   ar
    56    14    10    1
    57    50    45   ar
    58    43    39   ar
    59    57    52   ar
    60    20    15    1
    61     4     5    1
    62    33    36    1
