@<TRIPOS>MOLECULE
*****
 22 25 0 0 0
SMALL
GASTEIGER

@<TRIPOS>ATOM
      1 O          63.3395   89.5751   12.4907 O.2     1  UNL1       -0.2638
      2 C          62.5135   88.8584   11.4638 C.2     1  UNL1        0.3160
      3 N          61.7917   89.6378   10.4049 N.am    1  UNL1       -0.1720
      4 C          60.9657   88.9211    9.3781 C.ar    1  UNL1        0.0783
      5 C          60.2439   89.7005    8.3191 C.ar    1  UNL1        0.0281
      6 C          59.4180   88.9838    7.2923 C.ar    1  UNL1        0.0590
      7 CL         58.6961   89.7632    6.2333 Cl      1  UNL1       -0.0822
      8 C          59.3139   87.4878    7.3246 C.ar    1  UNL1        0.0116
      9 C          60.0358   86.7084    8.3836 C.ar    1  UNL1        0.0060
     10 C          60.8617   87.4251    9.4103 C.ar    1  UNL1        0.0623
     11 C          61.5836   86.6457   10.4693 C.2     1  UNL1        0.2419
     12 N          61.6675   85.1748   10.7512 N.2     1  UNL1       -0.0302
     13 C          62.5454   84.9825   11.9522 C.2     1  UNL1        0.3765
     14 N          63.0039   86.3344   12.4126 N.2     1  UNL1       -0.0256
     15 C          62.4095   87.3624   11.4961 C.2     1  UNL1        0.2907
     16 C          62.9021   83.6687   12.5822 C.ar    1  UNL1        0.0989
     17 C          62.3025   83.2824   13.9018 C.ar    1  UNL1        0.0085
     18 C          62.6592   81.9687   14.5317 C.ar    1  UNL1        0.0003
     19 C          63.6154   81.0413   13.8422 C.ar    1  UNL1        0.0009
     20 C          64.2150   81.4276   12.5226 C.ar    1  UNL1        0.0116
     21 C          63.8583   82.7413   11.8927 C.ar    1  UNL1        0.0651
     22 CL         64.4579   83.1277   10.5730 Cl      1  UNL1       -0.0820
@<TRIPOS>BOND
     1     1     2    2
     2     2     3    1
     3     3     4    2
     4     4     5   ar
     5     5     6   ar
     6     6     7    1
     7     6     8   ar
     8     8     9   ar
     9     9    10   ar
    10    10    11    2
    11    11    12    1
    12    12    13    2
    13    13    16    1
    14    16    17   ar
    15    17    18   ar
    16    18    19   ar
    17    19    20   ar
    18    20    21   ar
    19    21    22    1
    20    13    14    1
    21    14    15    2
    22    15     2    1
    23    10     4   ar
    24    15    11    1
    25    21    16   ar
@<TRIPOS>MOLECULE
*****
 22 25 0 0 0
SMALL
GASTEIGER

@<TRIPOS>ATOM
      1 O          61.2192   87.5494    9.1079 O.2     1  UNL1       -0.2638
      2 C          62.0003   87.7723   10.3690 C.2     1  UNL1        0.3160
      3 N          62.4608   89.1530   10.7319 N.am    1  UNL1       -0.1720
      4 C          63.2419   89.3759   11.9930 C.ar    1  UNL1        0.0783
      5 C          63.7023   90.7565   12.3558 C.ar    1  UNL1        0.0281
      6 C          64.4834   90.9794   13.6169 C.ar    1  UNL1        0.0590
      7 CL         64.9439   92.3601   13.9798 Cl      1  UNL1       -0.0822
      8 C          64.8039   89.8216   14.5151 C.ar    1  UNL1        0.0116
      9 C          64.3434   88.4409   14.1522 C.ar    1  UNL1        0.0060
     10 C          63.5624   88.2181   12.8912 C.ar    1  UNL1        0.0623
     11 C          63.1018   86.8374   12.5283 C.2     1  UNL1        0.2419
     12 N          63.2664   85.5125   13.2120 N.2     1  UNL1       -0.0302
     13 C          62.5870   84.4707   12.3734 C.2     1  UNL1        0.3765
     14 N          62.0026   85.1518   11.1715 N.2     1  UNL1       -0.0256
     15 C          62.3208   86.6145   11.2672 C.2     1  UNL1        0.2907
     16 C          62.5062   83.0050   12.6825 C.ar    1  UNL1        0.0989
     17 C          61.8751   82.5421   13.9621 C.ar    1  UNL1        0.0085
     18 C          61.7943   81.0765   14.2712 C.ar    1  UNL1        0.0003
     19 C          62.3446   80.0739   13.3006 C.ar    1  UNL1        0.0009
     20 C          62.9757   80.5369   12.0210 C.ar    1  UNL1        0.0116
     21 C          63.0565   82.0024   11.7120 C.ar    1  UNL1        0.0651
     22 CL         63.6876   82.4654   10.4323 Cl      1  UNL1       -0.0820
@<TRIPOS>BOND
     1     1     2    2
     2     2     3    1
     3     3     4    2
     4     4     5   ar
     5     5     6   ar
     6     6     7    1
     7     6     8   ar
     8     8     9   ar
     9     9    10   ar
    10    10    11    2
    11    11    12    1
    12    12    13    2
    13    13    16    1
    14    16    17   ar
    15    17    18   ar
    16    18    19   ar
    17    19    20   ar
    18    20    21   ar
    19    21    22    1
    20    13    14    1
    21    14    15    2
    22    15     2    1
    23    10     4   ar
    24    15    11    1
    25    21    16   ar
@<TRIPOS>MOLECULE
*****
 22 25 0 0 0
SMALL
GASTEIGER

@<TRIPOS>ATOM
      1 O          63.6968   87.1976   14.9141 O.2     1  UNL1       -0.2638
      2 C          63.9726   88.4625   14.1563 C.2     1  UNL1        0.3160
      3 N          64.8672   89.5112   14.7477 N.am    1  UNL1       -0.1720
      4 C          65.1430   90.7761   13.9900 C.ar    1  UNL1        0.0783
      5 C          66.0376   91.8248   14.5814 C.ar    1  UNL1        0.0281
      6 C          66.3133   93.0896   13.8236 C.ar    1  UNL1        0.0590
      7 CL         67.2080   94.1384   14.4150 Cl      1  UNL1       -0.0822
      8 C          65.6944   93.3057   12.4745 C.ar    1  UNL1        0.0116
      9 C          64.7997   92.2570   11.8830 C.ar    1  UNL1        0.0060
     10 C          64.5240   90.9922   12.6408 C.ar    1  UNL1        0.0623
     11 C          63.6294   89.9434   12.0494 C.2     1  UNL1        0.2419
     12 N          62.8835   89.8771   10.7497 N.2     1  UNL1       -0.0302
     13 C          62.1468   88.5713   10.7042 C.2     1  UNL1        0.3765
     14 N          62.4374   87.8306   11.9757 N.2     1  UNL1       -0.0256
     15 C          63.3537   88.6786   12.8071 C.2     1  UNL1        0.2907
     16 C          61.2729   88.0906    9.5837 C.ar    1  UNL1        0.0989
     17 C          60.3010   89.0306    8.9344 C.ar    1  UNL1        0.0085
     18 C          59.4272   88.5498    7.8140 C.ar    1  UNL1        0.0003
     19 C          59.5253   87.1291    7.3430 C.ar    1  UNL1        0.0009
     20 C          60.4972   86.1891    7.9924 C.ar    1  UNL1        0.0116
     21 C          61.3710   86.6698    9.1127 C.ar    1  UNL1        0.0651
     22 CL         62.3430   85.7298    9.7622 Cl      1  UNL1       -0.0820
@<TRIPOS>BOND
     1     1     2    2
     2     2     3    1
     3     3     4    2
     4     4     5   ar
     5     5     6   ar
     6     6     7    1
     7     6     8   ar
     8     8     9   ar
     9     9    10   ar
    10    10    11    2
    11    11    12    1
    12    12    13    2
    13    13    16    1
    14    16    17   ar
    15    17    18   ar
    16    18    19   ar
    17    19    20   ar
    18    20    21   ar
    19    21    22    1
    20    13    14    1
    21    14    15    2
    22    15     2    1
    23    10     4   ar
    24    15    11    1
    25    21    16   ar
@<TRIPOS>MOLECULE
*****
 22 25 0 0 0
SMALL
GASTEIGER

@<TRIPOS>ATOM
      1 O          61.7456   87.5156    9.8641 O.2     1  UNL1       -0.2638
      2 C          62.2828   86.6655   10.9771 C.2     1  UNL1        0.3160
      3 N          62.1387   85.1736   10.9180 N.am    1  UNL1       -0.1720
      4 C          62.6759   84.3234   12.0310 C.ar    1  UNL1        0.0783
      5 C          62.5318   82.8316   11.9718 C.ar    1  UNL1        0.0281
      6 C          63.0690   81.9815   13.0848 C.ar    1  UNL1        0.0590
      7 CL         62.9249   80.4896   13.0256 Cl      1  UNL1       -0.0822
      8 C          63.7504   82.6233   14.2569 C.ar    1  UNL1        0.0116
      9 C          63.8945   84.1152   14.3161 C.ar    1  UNL1        0.0060
     10 C          63.3573   84.9652   13.2031 C.ar    1  UNL1        0.0623
     11 C          63.5013   86.4572   13.2622 C.2     1  UNL1        0.2419
     12 N          64.1206   87.3660   14.2823 N.2     1  UNL1       -0.0302
     13 C          63.9661   88.7778   13.7997 C.2     1  UNL1        0.3765
     14 N          63.2514   88.7415   12.4815 N.2     1  UNL1       -0.0256
     15 C          62.9641   87.3072   12.1493 C.2     1  UNL1        0.2907
     16 C          64.4427   90.0097   14.5107 C.ar    1  UNL1        0.0989
     17 C          65.4996   90.8732   13.8884 C.ar    1  UNL1        0.0085
     18 C          65.9761   92.1050   14.5993 C.ar    1  UNL1        0.0003
     19 C          65.3957   92.4734   15.9325 C.ar    1  UNL1        0.0009
     20 C          64.3388   91.6099   16.5548 C.ar    1  UNL1        0.0116
     21 C          63.8623   90.3781   15.8439 C.ar    1  UNL1        0.0651
     22 CL         62.8053   89.5145   16.4662 Cl      1  UNL1       -0.0820
@<TRIPOS>BOND
     1     1     2    2
     2     2     3    1
     3     3     4    2
     4     4     5   ar
     5     5     6   ar
     6     6     7    1
     7     6     8   ar
     8     8     9   ar
     9     9    10   ar
    10    10    11    2
    11    11    12    1
    12    12    13    2
    13    13    16    1
    14    16    17   ar
    15    17    18   ar
    16    18    19   ar
    17    19    20   ar
    18    20    21   ar
    19    21    22    1
    20    13    14    1
    21    14    15    2
    22    15     2    1
    23    10     4   ar
    24    15    11    1
    25    21    16   ar
@<TRIPOS>MOLECULE
*****
 22 25 0 0 0
SMALL
GASTEIGER

@<TRIPOS>ATOM
      1 O          63.5399   85.0341   13.2417 O.2     1  UNL1       -0.2638
      2 C          62.9293   86.0959   12.3756 C.2     1  UNL1        0.3160
      3 N          62.0240   85.7111   11.2432 N.am    1  UNL1       -0.1720
      4 C          61.4134   86.7729   10.3772 C.ar    1  UNL1        0.0783
      5 C          60.5082   86.3882    9.2447 C.ar    1  UNL1        0.0281
      6 C          59.8976   87.4499    8.3787 C.ar    1  UNL1        0.0590
      7 CL         58.9923   87.0652    7.2463 Cl      1  UNL1       -0.0822
      8 C          60.1924   88.8963    8.6452 C.ar    1  UNL1        0.0116
      9 C          61.0977   89.2810    9.7776 C.ar    1  UNL1        0.0060
     10 C          61.7082   88.2193   10.6436 C.ar    1  UNL1        0.0623
     11 C          62.6136   88.6040   11.7761 C.2     1  UNL1        0.2419
     12 N          63.0838   89.9375   12.2765 N.2     1  UNL1       -0.0302
     13 C          63.9850   89.7000   13.4518 C.2     1  UNL1        0.3765
     14 N          64.0717   88.2197   13.6778 N.2     1  UNL1       -0.0256
     15 C          63.2241   87.5423   12.6421 C.2     1  UNL1        0.2907
     16 C          64.6779   90.7573   14.2595 C.ar    1  UNL1        0.0989
     17 C          65.7655   91.5829   13.6386 C.ar    1  UNL1        0.0085
     18 C          66.4583   92.6401   14.4463 C.ar    1  UNL1        0.0003
     19 C          66.0635   92.8716   15.8747 C.ar    1  UNL1        0.0009
     20 C          64.9759   92.0460   16.4956 C.ar    1  UNL1        0.0116
     21 C          64.2831   90.9888   15.6879 C.ar    1  UNL1        0.0651
     22 CL         63.1955   90.1631   16.3088 Cl      1  UNL1       -0.0820
@<TRIPOS>BOND
     1     1     2    2
     2     2     3    1
     3     3     4    2
     4     4     5   ar
     5     5     6   ar
     6     6     7    1
     7     6     8   ar
     8     8     9   ar
     9     9    10   ar
    10    10    11    2
    11    11    12    1
    12    12    13    2
    13    13    16    1
    14    16    17   ar
    15    17    18   ar
    16    18    19   ar
    17    19    20   ar
    18    20    21   ar
    19    21    22    1
    20    13    14    1
    21    14    15    2
    22    15     2    1
    23    10     4   ar
    24    15    11    1
    25    21    16   ar
@<TRIPOS>MOLECULE
*****
 22 25 0 0 0
SMALL
GASTEIGER

@<TRIPOS>ATOM
      1 O          62.4219   86.3222   18.1391 O.2     1  UNL1       -0.2638
      2 C          62.6882   85.8038   16.7569 C.2     1  UNL1        0.3160
      3 N          62.3968   84.3704   16.4243 N.am    1  UNL1       -0.1720
      4 C          62.6632   83.8521   15.0421 C.ar    1  UNL1        0.0783
      5 C          62.3718   82.4187   14.7096 C.ar    1  UNL1        0.0281
      6 C          62.6382   81.9004   13.3274 C.ar    1  UNL1        0.0590
      7 CL         62.3468   80.4670   12.9948 Cl      1  UNL1       -0.0822
      8 C          63.1959   82.8155   12.2778 C.ar    1  UNL1        0.0116
      9 C          63.4873   84.2488   12.6104 C.ar    1  UNL1        0.0060
     10 C          63.2210   84.7671   13.9925 C.ar    1  UNL1        0.0623
     11 C          63.5123   86.2005   14.3251 C.2     1  UNL1        0.2419
     12 N          64.0609   87.3297   13.5043 N.2     1  UNL1       -0.0302
     13 C          64.1336   88.5460   14.3791 C.2     1  UNL1        0.3765
     14 N          63.6299   88.1684   15.7406 N.2     1  UNL1       -0.0256
     15 C          63.2460   86.7188   15.7073 C.2     1  UNL1        0.2907
     16 C          64.6238   89.9019   13.9651 C.ar    1  UNL1        0.0989
     17 C          65.6948   90.5874   14.7608 C.ar    1  UNL1        0.0085
     18 C          66.1850   91.9431   14.3467 C.ar    1  UNL1        0.0003
     19 C          65.6042   92.6135   13.1370 C.ar    1  UNL1        0.0009
     20 C          64.5333   91.9280   12.3414 C.ar    1  UNL1        0.0116
     21 C          64.0431   90.5722   12.7554 C.ar    1  UNL1        0.0651
     22 CL         62.9721   89.8867   11.9597 Cl      1  UNL1       -0.0820
@<TRIPOS>BOND
     1     1     2    2
     2     2     3    1
     3     3     4    2
     4     4     5   ar
     5     5     6   ar
     6     6     7    1
     7     6     8   ar
     8     8     9   ar
     9     9    10   ar
    10    10    11    2
    11    11    12    1
    12    12    13    2
    13    13    16    1
    14    16    17   ar
    15    17    18   ar
    16    18    19   ar
    17    19    20   ar
    18    20    21   ar
    19    21    22    1
    20    13    14    1
    21    14    15    2
    22    15     2    1
    23    10     4   ar
    24    15    11    1
    25    21    16   ar
@<TRIPOS>MOLECULE
*****
 22 25 0 0 0
SMALL
GASTEIGER

@<TRIPOS>ATOM
      1 O          61.9696   89.3635   16.3139 O.2     1  UNL1       -0.2638
      2 C          62.9643   90.0434   15.4204 C.2     1  UNL1        0.3160
      3 N          64.0319   90.9147   16.0129 N.am    1  UNL1       -0.1720
      4 C          65.0267   91.5946   15.1195 C.ar    1  UNL1        0.0783
      5 C          66.0943   92.4659   15.7120 C.ar    1  UNL1        0.0281
      6 C          67.0890   93.1458   14.8185 C.ar    1  UNL1        0.0590
      7 CL         68.1566   94.0171   15.4110 Cl      1  UNL1       -0.0822
      8 C          67.0161   92.9544   13.3326 C.ar    1  UNL1        0.0116
      9 C          65.9485   92.0831   12.7401 C.ar    1  UNL1        0.0060
     10 C          64.9538   91.4032   13.6335 C.ar    1  UNL1        0.0623
     11 C          63.8862   90.5319   13.0410 C.2     1  UNL1        0.2419
     12 N          63.5674   90.1585   11.6237 N.2     1  UNL1       -0.0302
     13 C          62.3756   89.2478   11.6412 C.2     1  UNL1        0.3765
     14 N          61.9579   89.0584   13.0693 N.2     1  UNL1       -0.0256
     15 C          62.8915   89.8520   13.9345 C.2     1  UNL1        0.2907
     16 C          61.7171   88.6343   10.4411 C.ar    1  UNL1        0.0989
     17 C          62.2590   87.3640    9.8557 C.ar    1  UNL1        0.0085
     18 C          61.6006   86.7505    8.6557 C.ar    1  UNL1        0.0003
     19 C          60.4002   87.4073    8.0411 C.ar    1  UNL1        0.0009
     20 C          59.8583   88.6776    8.6265 C.ar    1  UNL1        0.0116
     21 C          60.5168   89.2911    9.8265 C.ar    1  UNL1        0.0651
     22 CL         59.9749   90.5614   10.4119 Cl      1  UNL1       -0.0820
@<TRIPOS>BOND
     1     1     2    2
     2     2     3    1
     3     3     4    2
     4     4     5   ar
     5     5     6   ar
     6     6     7    1
     7     6     8   ar
     8     8     9   ar
     9     9    10   ar
    10    10    11    2
    11    11    12    1
    12    12    13    2
    13    13    16    1
    14    16    17   ar
    15    17    18   ar
    16    18    19   ar
    17    19    20   ar
    18    20    21   ar
    19    21    22    1
    20    13    14    1
    21    14    15    2
    22    15     2    1
    23    10     4   ar
    24    15    11    1
    25    21    16   ar
@<TRIPOS>MOLECULE
*****
 22 25 0 0 0
SMALL
GASTEIGER

@<TRIPOS>ATOM
      1 O          63.7010   88.7167   14.9144 O.2     1  UNL1       -0.2638
      2 C          63.9454   89.7008   13.8089 C.2     1  UNL1        0.3160
      3 N          64.7433   90.9431   14.0735 N.am    1  UNL1       -0.1720
      4 C          64.9878   91.9271   12.9681 C.ar    1  UNL1        0.0783
      5 C          65.7856   93.1694   13.2326 C.ar    1  UNL1        0.0281
      6 C          66.0300   94.1534   12.1272 C.ar    1  UNL1        0.0590
      7 CL         66.8279   95.3958   12.3917 Cl      1  UNL1       -0.0822
      8 C          65.4765   93.8951   10.7572 C.ar    1  UNL1        0.0116
      9 C          64.6787   92.6528   10.4926 C.ar    1  UNL1        0.0060
     10 C          64.4343   91.6688   11.5980 C.ar    1  UNL1        0.0623
     11 C          63.6364   90.4264   11.3335 C.2     1  UNL1        0.2419
     12 N          62.9699   89.9066   10.0944 N.2     1  UNL1       -0.0302
     13 C          62.3135   88.6012   10.4340 C.2     1  UNL1        0.3765
     14 N          62.5744   88.3144   11.8830 N.2     1  UNL1       -0.0256
     15 C          63.3920   89.4425   12.4389 C.2     1  UNL1        0.2907
     16 C          61.5333   87.7348    9.4902 C.ar    1  UNL1        0.0989
     17 C          62.0812   86.4042    9.0667 C.ar    1  UNL1        0.0085
     18 C          61.3009   85.5379    8.1230 C.ar    1  UNL1        0.0003
     19 C          59.9728   86.0022    7.6028 C.ar    1  UNL1        0.0009
     20 C          59.4250   87.3327    8.0262 C.ar    1  UNL1        0.0116
     21 C          60.2052   88.1991    8.9700 C.ar    1  UNL1        0.0651
     22 CL         59.6574   89.5297    9.3935 Cl      1  UNL1       -0.0820
@<TRIPOS>BOND
     1     1     2    2
     2     2     3    1
     3     3     4    2
     4     4     5   ar
     5     5     6   ar
     6     6     7    1
     7     6     8   ar
     8     8     9   ar
     9     9    10   ar
    10    10    11    2
    11    11    12    1
    12    12    13    2
    13    13    16    1
    14    16    17   ar
    15    17    18   ar
    16    18    19   ar
    17    19    20   ar
    18    20    21   ar
    19    21    22    1
    20    13    14    1
    21    14    15    2
    22    15     2    1
    23    10     4   ar
    24    15    11    1
    25    21    16   ar
@<TRIPOS>MOLECULE
*****
 22 25 0 0 0
SMALL
GASTEIGER

@<TRIPOS>ATOM
      1 O          62.3319   90.6455   16.9918 O.2     1  UNL1       -0.2638
      2 C          63.4637   90.9899   16.0696 C.2     1  UNL1        0.3160
      3 N          64.6525   91.7423   16.5897 N.am    1  UNL1       -0.1720
      4 C          65.7843   92.0867   15.6674 C.ar    1  UNL1        0.0783
      5 C          66.9732   92.8391   16.1875 C.ar    1  UNL1        0.0281
      6 C          68.1049   93.1834   15.2653 C.ar    1  UNL1        0.0590
      7 CL         69.2938   93.9359   15.7853 Cl      1  UNL1       -0.0822
      8 C          68.0478   92.7754   13.8230 C.ar    1  UNL1        0.0116
      9 C          66.8590   92.0230   13.3029 C.ar    1  UNL1        0.0060
     10 C          65.7272   91.6786   14.2251 C.ar    1  UNL1        0.0623
     11 C          64.5383   90.9262   13.7051 C.2     1  UNL1        0.2419
     12 N          64.2040   90.3955   12.3426 N.2     1  UNL1       -0.0302
     13 C          62.8655   89.7230   12.4227 C.2     1  UNL1        0.3765
     14 N          62.3727   89.8383   13.8347 N.2     1  UNL1       -0.0256
     15 C          63.4066   90.5819   14.6273 C.2     1  UNL1        0.2907
     16 C          62.1461   89.0530   11.2897 C.ar    1  UNL1        0.0989
     17 C          61.3701   89.8747   10.3035 C.ar    1  UNL1        0.0085
     18 C          60.6508   89.2047    9.1706 C.ar    1  UNL1        0.0003
     19 C          60.7075   87.7130    9.0238 C.ar    1  UNL1        0.0009
     20 C          61.4835   86.8913   10.0099 C.ar    1  UNL1        0.0116
     21 C          62.2029   87.5613   11.1429 C.ar    1  UNL1        0.0651
     22 CL         62.9789   86.7396   12.1291 Cl      1  UNL1       -0.0820
@<TRIPOS>BOND
     1     1     2    2
     2     2     3    1
     3     3     4    2
     4     4     5   ar
     5     5     6   ar
     6     6     7    1
     7     6     8   ar
     8     8     9   ar
     9     9    10   ar
    10    10    11    2
    11    11    12    1
    12    12    13    2
    13    13    16    1
    14    16    17   ar
    15    17    18   ar
    16    18    19   ar
    17    19    20   ar
    18    20    21   ar
    19    21    22    1
    20    13    14    1
    21    14    15    2
    22    15     2    1
    23    10     4   ar
    24    15    11    1
    25    21    16   ar
