@<TRIPOS>MOLECULE
*****
 30 32 0 0 0
SMALL
GASTEIGER

@<TRIPOS>ATOM
      1 C          64.6160   87.8389   14.9245 C.3     1  UNL1        0.1387
      2 N          63.9658   88.3310   13.6655 N.ar    1  UNL1       -0.2434
      3 C          63.2889   87.3614   12.7425 C.ar    1  UNL1        0.2665
      4 C          62.6387   87.8535   11.4835 C.ar    1  UNL1        0.1487
      5 C          62.6655   89.3152   11.1474 C.ar    1  UNL1        0.2696
      6 O          62.0154   89.8073    9.8884 O.2     1  UNL1       -0.2669
      7 N          63.3424   90.2847   12.0703 N.ar    1  UNL1       -0.2467
      8 C          63.3692   91.7464   11.7343 C.3     1  UNL1        0.1382
      9 C          63.9926   89.7926   13.3294 C.ar    1  UNL1        0.3365
     10 O          64.6695   90.7622   14.2523 O.2     1  UNL1       -0.2461
     11 C          61.9618   86.8840   10.5606 C.3     1  UNL1        0.3248
     12 N          61.9351   85.4225   10.8967 N.pl3   1  UNL1       -0.2080
     13 C          62.5852   84.9304   12.1557 C.2     1  UNL1        0.3233
     14 N          63.2621   85.8999   13.0786 N.2     1  UNL1       -0.0219
     15 H          61.4908   84.7861   10.2909 H       1  UNL1        0.2928
     16 C          62.5584   83.4687   12.4918 C.ar    1  UNL1        0.0822
     17 C          62.1895   83.0240   13.8760 C.ar    1  UNL1        0.0082
     18 C          62.1627   81.5624   14.2121 C.ar    1  UNL1        0.0116
     19 C          62.5048   80.5454   13.1639 C.ar    1  UNL1        0.0577
     20 CL         62.4781   79.0838   13.4999 Cl      1  UNL1       -0.0822
     21 C          62.8738   80.9901   11.7796 C.ar    1  UNL1        0.0116
     22 C          62.9006   82.4517   11.4436 C.ar    1  UNL1        0.0082
     23 C          61.2026   86.3588    9.3783 C.3     1  UNL1        0.4451
     24 F          60.4435   85.8335    8.1960 F       1  UNL1       -0.1657
     25 F          60.4731   86.4308    9.6915 F       1  UNL1       -0.1657
     26 F          62.4924   86.1578    8.6394 F       1  UNL1       -0.1657
     27 C          61.7249   88.1633    9.8139 C.3     1  UNL1        0.4451
     28 F          61.4880   89.4424    9.0672 F       1  UNL1       -0.1657
     29 F          60.6023   88.4917   10.1422 F       1  UNL1       -0.1657
     30 F          62.4320   88.1939    9.4469 F       1  UNL1       -0.1657
@<TRIPOS>BOND
     1     1     2    1
     2     2     3   ar
     3     3     4   ar
     4     4     5   ar
     5     5     6    2
     6     5     7   ar
     7     7     8    1
     8     7     9   ar
     9     9    10    2
    10     4    11    1
    11    11    23    1
    12    23    24    1
    13    23    25    1
    14    23    26    1
    15    11    27    1
    16    27    28    1
    17    27    29    1
    18    27    30    1
    19    11    12    1
    20    12    13    1
    21    13    16    1
    22    16    17   ar
    23    17    18   ar
    24    18    19   ar
    25    19    20    1
    26    19    21   ar
    27    21    22   ar
    28    13    14    2
    29     9     2   ar
    30    22    16   ar
    31    14     3    1
    32    12    15    1
@<TRIPOS>MOLECULE
*****
 30 32 0 0 0
SMALL
GASTEIGER

@<TRIPOS>ATOM
      1 C          65.1510   93.3867    9.8901 C.3     1  UNL1        0.1387
      2 N          65.3241   93.0487   11.3412 N.ar    1  UNL1       -0.2434
      3 C          64.6067   91.8689   11.9273 C.ar    1  UNL1        0.2665
      4 C          64.7798   91.5309   13.3784 C.ar    1  UNL1        0.1487
      5 C          65.6704   92.3728   14.2435 C.ar    1  UNL1        0.2696
      6 O          65.8435   92.0348   15.6946 O.2     1  UNL1       -0.2669
      7 N          66.3877   93.5525   13.6574 N.ar    1  UNL1       -0.2467
      8 C          67.2783   94.3943   14.5225 C.3     1  UNL1        0.1382
      9 C          66.2146   93.8905   12.2063 C.ar    1  UNL1        0.3365
     10 O          66.9321   95.0703   11.6202 O.2     1  UNL1       -0.2461
     11 C          64.0624   90.3512   13.9645 C.3     1  UNL1        0.3248
     12 N          63.1719   89.5094   13.0994 N.pl3   1  UNL1       -0.2080
     13 C          62.9988   89.8474   11.6483 C.2     1  UNL1        0.3233
     14 N          63.7162   91.0271   11.0622 N.2     1  UNL1       -0.0219
     15 H          62.7010   88.7351   13.4841 H       1  UNL1        0.2928
     16 C          62.1082   89.0055   10.7832 C.ar    1  UNL1        0.0822
     17 C          62.1233   87.5120   10.9207 C.ar    1  UNL1        0.0082
     18 C          61.2327   86.6701   10.0556 C.ar    1  UNL1        0.0116
     19 C          60.3271   87.3220    9.0531 C.ar    1  UNL1        0.0577
     20 CL         59.4366   86.4802    8.1881 Cl      1  UNL1       -0.0822
     21 C          60.3121   88.8156    8.9157 C.ar    1  UNL1        0.0116
     22 C          61.2026   89.6574    9.7807 C.ar    1  UNL1        0.0082
     23 C          63.5983   89.3420   14.9726 C.3     1  UNL1        0.4451
     24 F          63.1343   88.3329   15.9807 F       1  UNL1       -0.1657
     25 F          62.9745   89.7569   15.2452 F       1  UNL1       -0.1657
     26 F          64.7238   88.4318   14.5795 F       1  UNL1       -0.1657
     27 C          64.7918   90.8425   15.1797 C.3     1  UNL1        0.4451
     28 F          65.5210   91.3339   16.3949 F       1  UNL1       -0.1657
     29 F          63.9491   91.4623   15.7977 F       1  UNL1       -0.1657
     30 F          65.5005   90.5230   15.0034 F       1  UNL1       -0.1657
@<TRIPOS>BOND
     1     1     2    1
     2     2     3   ar
     3     3     4   ar
     4     4     5   ar
     5     5     6    2
     6     5     7   ar
     7     7     8    1
     8     7     9   ar
     9     9    10    2
    10     4    11    1
    11    11    23    1
    12    23    24    1
    13    23    25    1
    14    23    26    1
    15    11    27    1
    16    27    28    1
    17    27    29    1
    18    27    30    1
    19    11    12    1
    20    12    13    1
    21    13    16    1
    22    16    17   ar
    23    17    18   ar
    24    18    19   ar
    25    19    20    1
    26    19    21   ar
    27    21    22   ar
    28    13    14    2
    29     9     2   ar
    30    22    16   ar
    31    14     3    1
    32    12    15    1
@<TRIPOS>MOLECULE
*****
 30 32 0 0 0
SMALL
GASTEIGER

@<TRIPOS>ATOM
      1 C          64.6114   83.9890   15.1689 C.3     1  UNL1        0.1387
      2 N          63.9649   84.1643   13.8268 N.ar    1  UNL1       -0.2434
      3 C          63.6378   85.5398   13.3258 C.ar    1  UNL1        0.2665
      4 C          62.9913   85.7151   11.9836 C.ar    1  UNL1        0.1487
      5 C          62.6720   84.5149   11.1425 C.ar    1  UNL1        0.2696
      6 O          62.0256   84.6902    9.8003 O.2     1  UNL1       -0.2669
      7 N          62.9992   83.1394   11.6434 N.ar    1  UNL1       -0.2467
      8 C          62.6799   81.9391   10.8022 C.3     1  UNL1        0.1382
      9 C          63.6457   82.9641   12.9856 C.ar    1  UNL1        0.3365
     10 O          63.9729   81.5886   13.4865 O.2     1  UNL1       -0.2461
     11 C          62.6641   87.0906   11.4827 C.3     1  UNL1        0.3248
     12 N          62.9834   88.2907   12.3239 N.pl3   1  UNL1       -0.2080
     13 C          63.6298   88.1154   13.6660 C.2     1  UNL1        0.3233
     14 N          63.9570   86.7400   14.1670 N.2     1  UNL1       -0.0219
     15 H          62.7687   89.1935   11.9951 H       1  UNL1        0.2928
     16 C          63.9491   89.3157   14.5072 C.ar    1  UNL1        0.0822
     17 C          64.9563   90.3196   14.0300 C.ar    1  UNL1        0.0082
     18 C          65.2756   91.5198   14.8712 C.ar    1  UNL1        0.0116
     19 C          64.5876   91.7161   16.1896 C.ar    1  UNL1        0.0577
     20 CL         64.9068   92.9163   17.0308 Cl      1  UNL1       -0.0822
     21 C          63.5804   90.7122   16.6668 C.ar    1  UNL1        0.0116
     22 C          63.2611   89.5120   15.8256 C.ar    1  UNL1        0.0082
     23 C          62.1660   88.1808   10.5808 C.3     1  UNL1        0.4451
     24 F          61.6678   89.2709    9.6789 F       1  UNL1       -0.1657
     25 F          62.7699   88.1602   10.0608 F       1  UNL1       -0.1657
     26 F          60.9600   88.3536   11.4558 F       1  UNL1       -0.1657
     27 C          62.1718   86.2690   10.3282 C.3     1  UNL1        0.4451
     28 F          61.6795   85.4474    9.1739 F       1  UNL1       -0.1657
     29 F          60.9872   86.1233   10.5552 F       1  UNL1       -0.1657
     30 F          62.8703   86.2055    9.9493 F       1  UNL1       -0.1657
@<TRIPOS>BOND
     1     1     2    1
     2     2     3   ar
     3     3     4   ar
     4     4     5   ar
     5     5     6    2
     6     5     7   ar
     7     7     8    1
     8     7     9   ar
     9     9    10    2
    10     4    11    1
    11    11    23    1
    12    23    24    1
    13    23    25    1
    14    23    26    1
    15    11    27    1
    16    27    28    1
    17    27    29    1
    18    27    30    1
    19    11    12    1
    20    12    13    1
    21    13    16    1
    22    16    17   ar
    23    17    18   ar
    24    18    19   ar
    25    19    20    1
    26    19    21   ar
    27    21    22   ar
    28    13    14    2
    29     9     2   ar
    30    22    16   ar
    31    14     3    1
    32    12    15    1
@<TRIPOS>MOLECULE
*****
 30 32 0 0 0
SMALL
GASTEIGER

@<TRIPOS>ATOM
      1 C          61.7575   87.5213    9.3497 C.3     1  UNL1        0.1387
      2 N          62.3625   87.9728   10.6459 N.ar    1  UNL1       -0.2434
      3 C          62.8337   86.9597   11.6468 C.ar    1  UNL1        0.2665
      4 C          63.4388   87.4112   12.9429 C.ar    1  UNL1        0.1487
      5 C          63.5727   88.8758   13.2382 C.ar    1  UNL1        0.2696
      6 O          64.1777   89.3273   14.5344 O.2     1  UNL1       -0.2669
      7 N          63.1015   89.8888   12.2373 N.ar    1  UNL1       -0.2467
      8 C          63.2354   91.3534   12.5326 C.3     1  UNL1        0.1382
      9 C          62.4964   89.4373   10.9412 C.ar    1  UNL1        0.3365
     10 O          62.0253   90.4504    9.9403 O.2     1  UNL1       -0.2461
     11 C          63.9099   86.3982   13.9438 C.3     1  UNL1        0.3248
     12 N          63.7760   84.9337   13.6485 N.pl3   1  UNL1       -0.2080
     13 C          63.1709   84.4822   12.3524 C.2     1  UNL1        0.3233
     14 N          62.6998   85.4952   11.3515 N.2     1  UNL1       -0.0219
     15 H          64.0853   84.2688   14.3054 H       1  UNL1        0.2928
     16 C          63.0370   83.0176   12.0571 C.ar    1  UNL1        0.0822
     17 C          62.5404   82.0809   13.1182 C.ar    1  UNL1        0.0082
     18 C          62.4065   80.6163   12.8229 C.ar    1  UNL1        0.0116
     19 C          62.7693   80.0885   11.4665 C.ar    1  UNL1        0.0577
     20 CL         62.6354   78.6240   11.1712 Cl      1  UNL1       -0.0822
     21 C          63.2659   81.0252   10.4054 C.ar    1  UNL1        0.0116
     22 C          63.3998   82.4897   10.7007 C.ar    1  UNL1        0.0082
     23 C          64.4986   85.8246   15.1986 C.3     1  UNL1        0.4451
     24 F          65.0872   85.2510   16.4534 F       1  UNL1       -0.1657
     25 F          65.2531   86.0416   15.0600 F       1  UNL1       -0.1657
     26 F          63.1407   85.3427   15.6154 F       1  UNL1       -0.1657
     27 C          64.2483   87.6635   14.6749 C.3     1  UNL1        0.4451
     28 F          64.5866   88.9288   15.4060 F       1  UNL1       -0.1657
     29 F          63.4268   87.7154   15.5685 F       1  UNL1       -0.1657
     30 F          64.8661   87.8771   14.2186 F       1  UNL1       -0.1657
@<TRIPOS>BOND
     1     1     2    1
     2     2     3   ar
     3     3     4   ar
     4     4     5   ar
     5     5     6    2
     6     5     7   ar
     7     7     8    1
     8     7     9   ar
     9     9    10    2
    10     4    11    1
    11    11    23    1
    12    23    24    1
    13    23    25    1
    14    23    26    1
    15    11    27    1
    16    27    28    1
    17    27    29    1
    18    27    30    1
    19    11    12    1
    20    12    13    1
    21    13    16    1
    22    16    17   ar
    23    17    18   ar
    24    18    19   ar
    25    19    20    1
    26    19    21   ar
    27    21    22   ar
    28    13    14    2
    29     9     2   ar
    30    22    16   ar
    31    14     3    1
    32    12    15    1
@<TRIPOS>MOLECULE
*****
 30 32 0 0 0
SMALL
GASTEIGER

@<TRIPOS>ATOM
      1 C          59.2364   93.7512   -2.5339 C.3     1  UNL1        0.1387
      2 N          59.9990   93.5199   -1.2631 N.ar    1  UNL1       -0.2434
      3 C          61.4947   93.6338   -1.2546 C.ar    1  UNL1        0.2665
      4 C          62.2573   93.4025    0.0162 C.ar    1  UNL1        0.1487
      5 C          61.5242   93.0572    1.2785 C.ar    1  UNL1        0.2696
      6 O          62.2868   92.8258    2.5493 O.2     1  UNL1       -0.2669
      7 N          60.0286   92.9432    1.2700 N.ar    1  UNL1       -0.2467
      8 C          59.2955   92.5979    2.5324 C.3     1  UNL1        0.1382
      9 C          59.2660   93.1746   -0.0008 C.ar    1  UNL1        0.3365
     10 O          57.7703   93.0606   -0.0092 O.2     1  UNL1       -0.2461
     11 C          63.7529   93.5165    0.0247 C.3     1  UNL1        0.3248
     12 N          64.4859   93.8618   -1.2376 N.pl3   1  UNL1       -0.2080
     13 C          63.7233   94.0931   -2.5084 C.2     1  UNL1        0.3233
     14 N          62.2277   93.9791   -2.5169 N.2     1  UNL1       -0.0219
     15 H          65.4675   93.9365   -1.2321 H       1  UNL1        0.2928
     16 C          64.4564   94.4384   -3.7708 C.ar    1  UNL1        0.0822
     17 C          64.9931   95.8246   -3.9711 C.ar    1  UNL1        0.0082
     18 C          65.7262   96.1700   -5.2334 C.ar    1  UNL1        0.0116
     19 C          65.9225   95.1290   -6.2954 C.ar    1  UNL1        0.0577
     20 CL         66.6555   95.4742   -7.5577 Cl      1  UNL1       -0.0822
     21 C          65.3857   93.7426   -6.0950 C.ar    1  UNL1        0.0116
     22 C          64.6527   93.3974   -4.8327 C.ar    1  UNL1        0.0082
     23 C          65.1642   93.5097    0.5329 C.3     1  UNL1        0.4451
     24 F          66.5755   93.5030    1.0410 F       1  UNL1       -0.1657
     25 F          65.2116   92.7272    0.6776 F       1  UNL1       -0.1657
     26 F          65.2476   94.9922    0.3209 F       1  UNL1       -0.1657
     27 C          63.5100   93.1688    1.4635 C.3     1  UNL1        0.4451
     28 F          63.2671   92.8212    2.9023 F       1  UNL1       -0.1657
     29 F          63.6452   94.2253    2.0480 F       1  UNL1       -0.1657
     30 F          63.3716   92.3915    1.3536 F       1  UNL1       -0.1657
@<TRIPOS>BOND
     1     1     2    1
     2     2     3   ar
     3     3     4   ar
     4     4     5   ar
     5     5     6    2
     6     5     7   ar
     7     7     8    1
     8     7     9   ar
     9     9    10    2
    10     4    11    1
    11    11    23    1
    12    23    24    1
    13    23    25    1
    14    23    26    1
    15    11    27    1
    16    27    28    1
    17    27    29    1
    18    27    30    1
    19    11    12    1
    20    12    13    1
    21    13    16    1
    22    16    17   ar
    23    17    18   ar
    24    18    19   ar
    25    19    20    1
    26    19    21   ar
    27    21    22   ar
    28    13    14    2
    29     9     2   ar
    30    22    16   ar
    31    14     3    1
    32    12    15    1
@<TRIPOS>MOLECULE
*****
 30 32 0 0 0
SMALL
GASTEIGER

@<TRIPOS>ATOM
      1 C          62.2617   96.1162   -3.0399 C.3     1  UNL1        0.1387
      2 N          62.5195   95.3717   -1.7634 N.ar    1  UNL1       -0.2434
      3 C          61.3687   94.8714   -0.9415 C.ar    1  UNL1        0.2665
      4 C          61.6264   94.1269    0.3349 C.ar    1  UNL1        0.1487
      5 C          63.0350   93.8828    0.7895 C.ar    1  UNL1        0.2696
      6 O          63.2927   93.1383    2.0660 O.2     1  UNL1       -0.2669
      7 N          64.1856   94.3832   -0.0324 N.ar    1  UNL1       -0.2467
      8 C          65.5942   94.1391    0.4222 C.3     1  UNL1        0.1382
      9 C          63.9279   95.1276   -1.3088 C.ar    1  UNL1        0.3365
     10 O          65.0787   95.6280   -2.1307 O.2     1  UNL1       -0.2461
     11 C          60.4757   93.6265    1.1568 C.3     1  UNL1        0.3248
     12 N          59.0673   93.8706    0.7022 N.pl3   1  UNL1       -0.2080
     13 C          58.8096   94.6151   -0.5743 C.2     1  UNL1        0.3233
     14 N          59.9603   95.1155   -1.3961 N.2     1  UNL1       -0.0219
     15 H          58.3121   93.5422    1.2416 H       1  UNL1        0.2928
     16 C          57.4011   94.8592   -1.0288 C.ar    1  UNL1        0.0822
     17 C          56.8674   96.2593   -1.0985 C.ar    1  UNL1        0.0082
     18 C          55.4589   96.5034   -1.5530 C.ar    1  UNL1        0.0116
     19 C          54.5841   95.3473   -1.9380 C.ar    1  UNL1        0.0577
     20 CL         53.1756   95.5914   -2.3925 Cl      1  UNL1       -0.0822
     21 C          55.1178   93.9472   -1.8683 C.ar    1  UNL1        0.0116
     22 C          56.5262   93.7031   -1.4138 C.ar    1  UNL1        0.0082
     23 C          59.7234   92.9611    2.2709 C.3     1  UNL1        0.4451
     24 F          58.9711   92.2958    3.3851 F       1  UNL1       -0.1657
     25 F          59.5226   92.3009    1.8718 F       1  UNL1       -0.1657
     26 F          60.0119   94.1310    3.1643 F       1  UNL1       -0.1657
     27 C          61.6230   93.1513    1.9983 C.3     1  UNL1        0.4451
     28 F          62.7701   92.6761    2.8398 F       1  UNL1       -0.1657
     29 F          61.7645   91.9893    1.6731 F       1  UNL1       -0.1657
     30 F          61.7531   93.8380    2.3818 F       1  UNL1       -0.1657
@<TRIPOS>BOND
     1     1     2    1
     2     2     3   ar
     3     3     4   ar
     4     4     5   ar
     5     5     6    2
     6     5     7   ar
     7     7     8    1
     8     7     9   ar
     9     9    10    2
    10     4    11    1
    11    11    23    1
    12    23    24    1
    13    23    25    1
    14    23    26    1
    15    11    27    1
    16    27    28    1
    17    27    29    1
    18    27    30    1
    19    11    12    1
    20    12    13    1
    21    13    16    1
    22    16    17   ar
    23    17    18   ar
    24    18    19   ar
    25    19    20    1
    26    19    21   ar
    27    21    22   ar
    28    13    14    2
    29     9     2   ar
    30    22    16   ar
    31    14     3    1
    32    12    15    1
@<TRIPOS>MOLECULE
*****
 30 32 0 0 0
SMALL
GASTEIGER

@<TRIPOS>ATOM
      1 C          62.5361   90.6906   11.2771 C.3     1  UNL1        0.1387
      2 N          62.9566   89.7399   12.3584 N.ar    1  UNL1       -0.2434
      3 C          62.9893   88.2646   12.0890 C.ar    1  UNL1        0.2665
      4 C          63.4099   87.3139   13.1703 C.ar    1  UNL1        0.1487
      5 C          63.7977   87.8385   14.5211 C.ar    1  UNL1        0.2696
      6 O          64.2183   86.8878   15.6024 O.2     1  UNL1       -0.2669
      7 N          63.7650   89.3137   14.7904 N.ar    1  UNL1       -0.2467
      8 C          64.1528   89.8383   16.1412 C.3     1  UNL1        0.1382
      9 C          63.3444   90.2644   13.7091 C.ar    1  UNL1        0.3365
     10 O          63.3117   91.7397   13.9785 O.2     1  UNL1       -0.2461
     11 C          63.4426   85.8387   12.9009 C.3     1  UNL1        0.3248
     12 N          63.0548   85.3141   11.5502 N.pl3   1  UNL1       -0.2080
     13 C          62.6342   86.2649   10.4689 C.2     1  UNL1        0.3233
     14 N          62.6015   87.7401   10.7383 N.2     1  UNL1       -0.0219
     15 H          63.0762   84.3459   11.3734 H       1  UNL1        0.2928
     16 C          62.2464   85.7403    9.1182 C.ar    1  UNL1        0.0822
     17 C          63.2483   84.9950    8.2870 C.ar    1  UNL1        0.0082
     18 C          62.8604   84.4705    6.9363 C.ar    1  UNL1        0.0116
     19 C          61.4707   84.6911    6.4167 C.ar    1  UNL1        0.0577
     20 CL         61.0828   84.1666    5.0660 Cl      1  UNL1       -0.0822
     21 C          60.4688   85.4364    7.2479 C.ar    1  UNL1        0.0116
     22 C          60.8566   85.9609    8.5986 C.ar    1  UNL1        0.0082
     23 C          63.6330   84.3682   13.1281 C.3     1  UNL1        0.4451
     24 F          63.8233   82.8978   13.3552 F       1  UNL1       -0.1657
     25 F          64.4292   84.3782   13.1668 F       1  UNL1       -0.1657
     26 F          62.1470   84.1688   13.0824 F       1  UNL1       -0.1657
     27 C          63.8966   85.8525   14.3306 C.3     1  UNL1        0.4451
     28 F          64.3504   85.8663   15.7601 F       1  UNL1       -0.1657
     29 F          62.9295   85.4559   14.9499 F       1  UNL1       -0.1657
     30 F          64.6348   86.1214   14.1955 F       1  UNL1       -0.1657
@<TRIPOS>BOND
     1     1     2    1
     2     2     3   ar
     3     3     4   ar
     4     4     5   ar
     5     5     6    2
     6     5     7   ar
     7     7     8    1
     8     7     9   ar
     9     9    10    2
    10     4    11    1
    11    11    23    1
    12    23    24    1
    13    23    25    1
    14    23    26    1
    15    11    27    1
    16    27    28    1
    17    27    29    1
    18    27    30    1
    19    11    12    1
    20    12    13    1
    21    13    16    1
    22    16    17   ar
    23    17    18   ar
    24    18    19   ar
    25    19    20    1
    26    19    21   ar
    27    21    22   ar
    28    13    14    2
    29     9     2   ar
    30    22    16   ar
    31    14     3    1
    32    12    15    1
@<TRIPOS>MOLECULE
*****
 30 32 0 0 0
SMALL
GASTEIGER

@<TRIPOS>ATOM
      1 C          60.9460   90.3808    9.4554 C.3     1  UNL1        0.1387
      2 N          61.1493   88.9063    9.6417 N.ar    1  UNL1       -0.2434
      3 C          61.9291   88.3996   10.8187 C.ar    1  UNL1        0.2665
      4 C          62.1324   86.9252   11.0050 C.ar    1  UNL1        0.1487
      5 C          61.5560   85.9575   10.0143 C.ar    1  UNL1        0.2696
      6 O          61.7593   84.4830   10.2006 O.2     1  UNL1       -0.2669
      7 N          60.7762   86.4643    8.8374 N.ar    1  UNL1       -0.2467
      8 C          60.1998   85.4966    7.8467 C.3     1  UNL1        0.1382
      9 C          60.5729   87.9387    8.6511 C.ar    1  UNL1        0.3365
     10 O          59.7931   88.4455    7.4741 O.2     1  UNL1       -0.2461
     11 C          62.9121   86.4184   12.1819 C.3     1  UNL1        0.3248
     12 N          63.4885   87.3860   13.1725 N.pl3   1  UNL1       -0.2080
     13 C          63.2852   88.8605   12.9862 C.2     1  UNL1        0.3233
     14 N          62.5055   89.3672   11.8093 N.2     1  UNL1       -0.0219
     15 H          64.0003   87.0534   13.9450 H       1  UNL1        0.2928
     16 C          63.8616   89.8281   13.9769 C.ar    1  UNL1        0.0822
     17 C          63.2809   89.9243   15.3566 C.ar    1  UNL1        0.0082
     18 C          63.8573   90.8919   16.3473 C.ar    1  UNL1        0.0116
     19 C          65.0145   91.7634   15.9582 C.ar    1  UNL1        0.0577
     20 CL         65.5909   92.7311   16.9488 Cl      1  UNL1       -0.0822
     21 C          65.5953   91.6673   14.5785 C.ar    1  UNL1        0.0116
     22 C          65.0188   90.6996   13.5879 C.ar    1  UNL1        0.0082
     23 C          63.5712   85.4599   13.1290 C.3     1  UNL1        0.4451
     24 F          64.2302   84.5015   14.0762 F       1  UNL1       -0.1657
     25 F          64.3241   85.6662   12.9677 F       1  UNL1       -0.1657
     26 F          62.2247   84.9513   13.5511 F       1  UNL1       -0.1657
     27 C          62.5646   85.1178   11.5202 C.3     1  UNL1        0.4451
     28 F          62.2172   83.8173   10.8585 F       1  UNL1       -0.1657
     29 F          63.5984   84.7772   10.9805 F       1  UNL1       -0.1657
     30 F          61.8025   85.0912   11.7525 F       1  UNL1       -0.1657
@<TRIPOS>BOND
     1     1     2    1
     2     2     3   ar
     3     3     4   ar
     4     4     5   ar
     5     5     6    2
     6     5     7   ar
     7     7     8    1
     8     7     9   ar
     9     9    10    2
    10     4    11    1
    11    11    23    1
    12    23    24    1
    13    23    25    1
    14    23    26    1
    15    11    27    1
    16    27    28    1
    17    27    29    1
    18    27    30    1
    19    11    12    1
    20    12    13    1
    21    13    16    1
    22    16    17   ar
    23    17    18   ar
    24    18    19   ar
    25    19    20    1
    26    19    21   ar
    27    21    22   ar
    28    13    14    2
    29     9     2   ar
    30    22    16   ar
    31    14     3    1
    32    12    15    1
@<TRIPOS>MOLECULE
*****
 30 32 0 0 0
SMALL
GASTEIGER

@<TRIPOS>ATOM
      1 C          60.7680   93.2481   -2.7791 C.3     1  UNL1        0.1387
      2 N          62.0133   93.9957   -2.4044 N.ar    1  UNL1       -0.2434
      3 C          62.4466   94.0598   -0.9697 C.ar    1  UNL1        0.2665
      4 C          63.6919   94.8074   -0.5951 C.ar    1  UNL1        0.1487
      5 C          64.5039   95.4908   -1.6551 C.ar    1  UNL1        0.2696
      6 O          65.7492   96.2384   -1.2805 O.2     1  UNL1       -0.2669
      7 N          64.0706   95.4266   -3.0897 N.ar    1  UNL1       -0.2467
      8 C          64.8827   96.1100   -4.1498 C.3     1  UNL1        0.1382
      9 C          62.8253   94.6790   -3.4644 C.ar    1  UNL1        0.3365
     10 O          62.3921   94.6149   -4.8991 O.2     1  UNL1       -0.2461
     11 C          64.1251   94.8716    0.8395 C.3     1  UNL1        0.3248
     12 N          63.3131   94.1882    1.8995 N.pl3   1  UNL1       -0.2080
     13 C          62.0678   93.4406    1.5248 C.2     1  UNL1        0.3233
     14 N          61.6345   93.3765    0.0902 N.2     1  UNL1       -0.0219
     15 H          63.5975   94.2303    2.8411 H       1  UNL1        0.2928
     16 C          61.2558   92.7572    2.5849 C.ar    1  UNL1        0.0822
     17 C          59.7877   93.0410    2.7045 C.ar    1  UNL1        0.0082
     18 C          58.9757   92.3576    3.7646 C.ar    1  UNL1        0.0116
     19 C          59.6317   91.3905    4.7049 C.ar    1  UNL1        0.0577
     20 CL         58.8198   90.7071    5.7649 Cl      1  UNL1       -0.0822
     21 C          61.0998   91.1067    4.5852 C.ar    1  UNL1        0.0116
     22 C          61.9118   91.7901    3.5252 C.ar    1  UNL1        0.0082
     23 C          64.9386   95.2145    2.0523 C.3     1  UNL1        0.4451
     24 F          65.7519   95.5574    3.2651 F       1  UNL1       -0.1657
     25 F          65.4961   94.6527    1.9573 F       1  UNL1       -0.1657
     26 F          63.9814   96.3215    2.3812 F       1  UNL1       -0.1657
     27 C          65.2197   95.6741    0.2007 C.3     1  UNL1        0.4451
     28 F          66.3142   96.4766   -0.4381 F       1  UNL1       -0.1657
     29 F          64.8558   96.8256    0.3336 F       1  UNL1       -0.1657
     30 F          65.6788   95.0587   -0.0139 F       1  UNL1       -0.1657
@<TRIPOS>BOND
     1     1     2    1
     2     2     3   ar
     3     3     4   ar
     4     4     5   ar
     5     5     6    2
     6     5     7   ar
     7     7     8    1
     8     7     9   ar
     9     9    10    2
    10     4    11    1
    11    11    23    1
    12    23    24    1
    13    23    25    1
    14    23    26    1
    15    11    27    1
    16    27    28    1
    17    27    29    1
    18    27    30    1
    19    11    12    1
    20    12    13    1
    21    13    16    1
    22    16    17   ar
    23    17    18   ar
    24    18    19   ar
    25    19    20    1
    26    19    21   ar
    27    21    22   ar
    28    13    14    2
    29     9     2   ar
    30    22    16   ar
    31    14     3    1
    32    12    15    1
