@<TRIPOS>MOLECULE
*****
 27 30 0 0 0
SMALL
GASTEIGER

@<TRIPOS>ATOM
      1 C          63.1615   84.3408   13.9490 C.ar    1  UNL1        0.0070
      2 C          63.9797   84.9186   15.0655 C.ar    1  UNL1       -0.0017
      3 C          64.3301   86.3770   15.0615 C.ar    1  UNL1       -0.0005
      4 C          63.8623   87.2577   13.9410 C.ar    1  UNL1       -0.0022
      5 C          64.2127   88.7162   13.9371 C.ar    1  UNL1        0.0021
      6 C          63.7448   89.5969   12.8166 C.ar    1  UNL1        0.0512
      7 C          62.9266   89.0191   11.7000 C.ar    1  UNL1        0.0043
      8 C          62.5762   87.5606   11.7040 C.ar    1  UNL1        0.0001
      9 C          63.0441   86.6799   12.8245 C.ar    1  UNL1       -0.0005
     10 C          62.6937   85.2214   12.8285 C.ar    1  UNL1       -0.0017
     11 C          64.2419   90.9872   13.0812 C.2     1  UNL1        0.2491
     12 O          64.0055   92.1881   12.2141 O.2     1  UNL1       -0.2699
     13 N          65.0170   90.9657   14.3653 N.am    1  UNL1       -0.2702
     14 C          65.6917   92.1414   15.0076 C.3     1  UNL1        0.1155
     15 C          64.9989   89.5623   14.8942 C.3     1  UNL1        0.1206
     16 C          62.8111   82.8822   13.9530 C.3     1  UNL1        0.1410
     17 O          62.2381   83.0236   15.3319 O.3     1  UNL1       -0.3771
     18 H          62.2424   82.1602   15.7739 H       1  UNL1        0.2112
     19 C          63.3842   82.7409   12.5740 C.ar    1  UNL1        0.0825
     20 C          64.7923   83.0599   12.1674 C.ar    1  UNL1        0.1157
     21 N          64.9282   82.7719   10.7015 N.ar    1  UNL1       -0.2228
     22 C          63.6039   82.2748   10.2022 C.ar    1  UNL1        0.1749
     23 N          62.6497   82.2556   11.3594 N.ar    1  UNL1       -0.3361
     24 H          61.7068   81.9740   11.3274 H       1  UNL1        0.1673
     25 C          63.5437   80.3919   13.8442 C.3     1  UNL1        0.0031
     26 C          62.4607   81.4238   13.9569 C.3     1  UNL1        0.0340
     27 C          61.0274   80.9970   14.0734 C.3     1  UNL1        0.0031
@<TRIPOS>BOND
     1    25    26    1
     2    26    27    1
     3    26    16    1
     4    16    17    1
     5    16     1    1
     6     1     2   ar
     7     2     3   ar
     8     3     4   ar
     9     4     5   ar
    10     5     6   ar
    11     6     7   ar
    12     7     8   ar
    13     8     9   ar
    14     9    10   ar
    15     6    11    1
    16    11    12    2
    17    11    13   am
    18    13    14    1
    19    13    15    1
    20    16    19    1
    21    19    20   ar
    22    20    21   ar
    23    21    22   ar
    24    22    23   ar
    25    10     1   ar
    26    23    19   ar
    27     9     4   ar
    28    15     5    1
    29    17    18    1
    30    23    24    1
@<TRIPOS>MOLECULE
*****
 27 30 0 0 0
SMALL
GASTEIGER

@<TRIPOS>ATOM
      1 C          61.7265   89.4953   10.4194 C.ar    1  UNL1        0.0070
      2 C          61.7162   89.1285   11.8737 C.ar    1  UNL1       -0.0017
      3 C          62.6705   89.7925   12.8215 C.ar    1  UNL1       -0.0005
      4 C          63.6352   90.8234   12.3148 C.ar    1  UNL1       -0.0022
      5 C          64.5896   91.4874   13.2626 C.ar    1  UNL1        0.0021
      6 C          65.5543   92.5183   12.7560 C.ar    1  UNL1        0.0512
      7 C          65.5645   92.8851   11.3015 C.ar    1  UNL1        0.0043
      8 C          64.6102   92.2211   10.3538 C.ar    1  UNL1        0.0001
      9 C          63.6455   91.1902   10.8604 C.ar    1  UNL1       -0.0005
     10 C          62.6912   90.5262    9.9127 C.ar    1  UNL1       -0.0017
     11 C          66.3707   93.0000   13.9184 C.2     1  UNL1        0.2491
     12 O          67.4566   94.0335   13.8651 O.2     1  UNL1       -0.2699
     13 N          65.9107   92.2669   15.1434 N.am    1  UNL1       -0.2702
     14 C          66.4557   92.4384   16.5303 C.3     1  UNL1        0.1155
     15 C          64.8099   91.3320   14.7382 C.3     1  UNL1        0.1206
     16 C          60.7721   88.8313    9.4715 C.3     1  UNL1        0.1410
     17 O          60.1577   90.1630    9.1571 O.3     1  UNL1       -0.3771
     18 H          59.2541   90.0329    8.8292 H       1  UNL1        0.2112
     19 C          61.3865   87.4995    9.7860 C.ar    1  UNL1        0.0825
     20 C          62.3593   86.7515    8.9233 C.ar    1  UNL1        0.1157
     21 N          62.7100   85.4716    9.6225 N.ar    1  UNL1       -0.2228
     22 C          61.9540   85.4286   10.9174 C.ar    1  UNL1        0.1749
     23 N          61.1360   86.6818   11.0184 N.ar    1  UNL1       -0.3361
     24 H          60.5395   86.9251   11.7629 H       1  UNL1        0.1673
     25 C          59.5001   88.8101    7.2063 C.3     1  UNL1        0.0031
     26 C          59.8178   88.1672    8.5238 C.3     1  UNL1        0.0340
     27 C          59.1811   86.8603    8.8935 C.3     1  UNL1        0.0031
@<TRIPOS>BOND
     1    25    26    1
     2    26    27    1
     3    26    16    1
     4    16    17    1
     5    16     1    1
     6     1     2   ar
     7     2     3   ar
     8     3     4   ar
     9     4     5   ar
    10     5     6   ar
    11     6     7   ar
    12     7     8   ar
    13     8     9   ar
    14     9    10   ar
    15     6    11    1
    16    11    12    2
    17    11    13   am
    18    13    14    1
    19    13    15    1
    20    16    19    1
    21    19    20   ar
    22    20    21   ar
    23    21    22   ar
    24    22    23   ar
    25    10     1   ar
    26    23    19   ar
    27     9     4   ar
    28    15     5    1
    29    17    18    1
    30    23    24    1
@<TRIPOS>MOLECULE
*****
 27 30 0 0 0
SMALL
GASTEIGER

@<TRIPOS>ATOM
      1 C          62.5084   89.2418   10.9048 C.ar    1  UNL1        0.0070
      2 C          62.8758   88.6983   12.2537 C.ar    1  UNL1       -0.0017
      3 C          63.8264   89.4547   13.1335 C.ar    1  UNL1       -0.0005
      4 C          64.4096   90.7546   12.6644 C.ar    1  UNL1       -0.0022
      5 C          65.3602   91.5111   13.5443 C.ar    1  UNL1        0.0021
      6 C          65.9434   92.8110   13.0752 C.ar    1  UNL1        0.0512
      7 C          65.5760   93.3545   11.7262 C.ar    1  UNL1        0.0043
      8 C          64.6254   92.5981   10.8464 C.ar    1  UNL1        0.0001
      9 C          64.0422   91.2981   11.3155 C.ar    1  UNL1       -0.0005
     10 C          63.0916   90.5417   10.4357 C.ar    1  UNL1       -0.0017
     11 C          66.8474   93.3296   14.1541 C.2     1  UNL1        0.2491
     12 O          67.6372   94.6040   14.1056 O.2     1  UNL1       -0.2699
     13 N          66.8228   92.3503   15.2899 N.am    1  UNL1       -0.2702
     14 C          67.5837   92.4732   16.5767 C.3     1  UNL1        0.1155
     15 C          65.9037   91.2263   14.9131 C.3     1  UNL1        0.1206
     16 C          61.5578   88.4853   10.0248 C.3     1  UNL1        0.1410
     17 O          62.7131   87.9730    9.2170 O.3     1  UNL1       -0.3771
     18 H          62.4042   87.7266    8.3311 H       1  UNL1        0.2112
     19 C          60.4025   88.9976   10.8327 C.ar    1  UNL1        0.0825
     20 C          59.8804   90.4039   10.8315 C.ar    1  UNL1        0.1157
     21 N          58.7215   90.4690   11.7818 N.ar    1  UNL1       -0.2228
     22 C          58.5274   89.1029   12.3703 C.ar    1  UNL1        0.1749
     23 N          59.5662   88.1936   11.7837 N.ar    1  UNL1       -0.3361
     24 H          59.6793   87.2370   11.9872 H       1  UNL1        0.1673
     25 C          60.5799   86.2297    9.1847 C.3     1  UNL1        0.0031
     26 C          60.6072   87.7289    9.1450 C.3     1  UNL1        0.0340
     27 C          59.6838   88.4718    8.2254 C.3     1  UNL1        0.0031
@<TRIPOS>BOND
     1    25    26    1
     2    26    27    1
     3    26    16    1
     4    16    17    1
     5    16     1    1
     6     1     2   ar
     7     2     3   ar
     8     3     4   ar
     9     4     5   ar
    10     5     6   ar
    11     6     7   ar
    12     7     8   ar
    13     8     9   ar
    14     9    10   ar
    15     6    11    1
    16    11    12    2
    17    11    13   am
    18    13    14    1
    19    13    15    1
    20    16    19    1
    21    19    20   ar
    22    20    21   ar
    23    21    22   ar
    24    22    23   ar
    25    10     1   ar
    26    23    19   ar
    27     9     4   ar
    28    15     5    1
    29    17    18    1
    30    23    24    1
@<TRIPOS>MOLECULE
*****
 27 30 0 0 0
SMALL
GASTEIGER

@<TRIPOS>ATOM
      1 C          64.3944   90.7783   13.0895 C.ar    1  UNL1        0.0070
      2 C          63.7618   91.6914   12.0815 C.ar    1  UNL1       -0.0017
      3 C          62.8243   91.1360   11.0507 C.ar    1  UNL1       -0.0005
      4 C          62.5193   89.6675   11.0280 C.ar    1  UNL1       -0.0022
      5 C          61.5817   89.1121    9.9971 C.ar    1  UNL1        0.0021
      6 C          61.2766   87.6436    9.9744 C.ar    1  UNL1        0.0512
      7 C          61.9092   86.7305   10.9824 C.ar    1  UNL1        0.0043
      8 C          62.8468   87.2859   12.0132 C.ar    1  UNL1        0.0001
      9 C          63.1518   88.7544   12.0360 C.ar    1  UNL1       -0.0005
     10 C          64.0893   89.3098   13.0667 C.ar    1  UNL1       -0.0017
     11 C          60.3202   87.3863    8.8478 C.2     1  UNL1        0.2491
     12 O          59.7500   86.0535    8.4624 O.2     1  UNL1       -0.2699
     13 N          60.0342   88.6957    8.1744 N.am    1  UNL1       -0.2702
     14 C          59.1277   88.9022    6.9973 C.3     1  UNL1        0.1155
     15 C          60.8138   89.7623    8.8846 C.3     1  UNL1        0.1206
     16 C          65.3320   91.3336   14.1203 C.3     1  UNL1        0.1410
     17 O          64.7452   90.4137   15.1496 O.3     1  UNL1       -0.3771
     18 H          64.8988   90.7792   16.0349 H       1  UNL1        0.2112
     19 C          65.9187   92.2535   13.0910 C.ar    1  UNL1        0.0825
     20 C          66.7999   91.8486   11.9466 C.ar    1  UNL1        0.1157
     21 N          67.1530   93.0848   11.1736 N.ar    1  UNL1       -0.2228
     22 C          66.4901   94.2536   11.8403 C.ar    1  UNL1        0.1749
     23 N          65.7272   93.7399   13.0253 N.ar    1  UNL1       -0.3361
     24 H          65.1945   94.2829   13.6502 H       1  UNL1        0.1673
     25 C          65.7257   92.6100   16.3487 C.3     1  UNL1        0.0031
     26 C          66.2695   91.8890   15.1511 C.3     1  UNL1        0.0340
     27 C          67.7510   91.7233   14.9842 C.3     1  UNL1        0.0031
@<TRIPOS>BOND
     1    25    26    1
     2    26    27    1
     3    26    16    1
     4    16    17    1
     5    16     1    1
     6     1     2   ar
     7     2     3   ar
     8     3     4   ar
     9     4     5   ar
    10     5     6   ar
    11     6     7   ar
    12     7     8   ar
    13     8     9   ar
    14     9    10   ar
    15     6    11    1
    16    11    12    2
    17    11    13   am
    18    13    14    1
    19    13    15    1
    20    16    19    1
    21    19    20   ar
    22    20    21   ar
    23    21    22   ar
    24    22    23   ar
    25    10     1   ar
    26    23    19   ar
    27     9     4   ar
    28    15     5    1
    29    17    18    1
    30    23    24    1
@<TRIPOS>MOLECULE
*****
 27 30 0 0 0
SMALL
GASTEIGER

@<TRIPOS>ATOM
      1 C          63.8315   90.4313   12.7071 C.ar    1  UNL1        0.0070
      2 C          63.2054   91.4243   11.7734 C.ar    1  UNL1       -0.0017
      3 C          62.2849   90.9546   10.6862 C.ar    1  UNL1       -0.0005
      4 C          61.9905   89.4918   10.5328 C.ar    1  UNL1       -0.0022
      5 C          61.0700   89.0220    9.4455 C.ar    1  UNL1        0.0021
      6 C          60.7755   87.5592    9.2921 C.ar    1  UNL1        0.0512
      7 C          61.4017   86.5662   10.2259 C.ar    1  UNL1        0.0043
      8 C          62.3222   87.0359   11.3130 C.ar    1  UNL1        0.0001
      9 C          62.6166   88.4987   11.4665 C.ar    1  UNL1       -0.0005
     10 C          63.5371   88.9685   12.5536 C.ar    1  UNL1       -0.0017
     11 C          59.8353   87.3945    8.1350 C.2     1  UNL1        0.2491
     12 O          59.2794   86.0967    7.6285 O.2     1  UNL1       -0.2699
     13 N          59.5487   88.7555    7.5734 N.am    1  UNL1       -0.2702
     14 C          58.6557   89.0576    6.4066 C.3     1  UNL1        0.1155
     15 C          60.3117   89.7613    8.3833 C.3     1  UNL1        0.1206
     16 C          64.7521   90.9011   13.7943 C.3     1  UNL1        0.1410
     17 O          65.3905   91.8641   12.8378 O.3     1  UNL1       -0.3771
     18 H          66.2843   92.0810   13.1457 H       1  UNL1        0.2112
     19 C          64.1137   89.9381   14.7508 C.ar    1  UNL1        0.0825
     20 C          64.4905   88.4979   14.9351 C.ar    1  UNL1        0.1157
     21 N          63.5960   87.9158   15.9893 N.ar    1  UNL1       -0.2228
     22 C          62.6663   88.9964   16.4565 C.ar    1  UNL1        0.1749
     23 N          62.9862   90.2461   15.6912 N.ar    1  UNL1       -0.3361
     24 H          62.5354   91.1158   15.7888 H       1  UNL1        0.1673
     25 C          65.1163   92.0778   16.0818 C.3     1  UNL1        0.0031
     26 C          65.6725   91.3707   14.8815 C.3     1  UNL1        0.0340
     27 C          67.1494   91.1334   14.7685 C.3     1  UNL1        0.0031
@<TRIPOS>BOND
     1    25    26    1
     2    26    27    1
     3    26    16    1
     4    16    17    1
     5    16     1    1
     6     1     2   ar
     7     2     3   ar
     8     3     4   ar
     9     4     5   ar
    10     5     6   ar
    11     6     7   ar
    12     7     8   ar
    13     8     9   ar
    14     9    10   ar
    15     6    11    1
    16    11    12    2
    17    11    13   am
    18    13    14    1
    19    13    15    1
    20    16    19    1
    21    19    20   ar
    22    20    21   ar
    23    21    22   ar
    24    22    23   ar
    25    10     1   ar
    26    23    19   ar
    27     9     4   ar
    28    15     5    1
    29    17    18    1
    30    23    24    1
@<TRIPOS>MOLECULE
*****
 27 30 0 0 0
SMALL
GASTEIGER

@<TRIPOS>ATOM
      1 C          61.8469   89.6071   10.5182 C.ar    1  UNL1        0.0070
      2 C          62.8371   90.5887    9.9651 C.ar    1  UNL1       -0.0017
      3 C          63.8026   91.2779   10.8831 C.ar    1  UNL1       -0.0005
      4 C          63.7780   90.9855   12.3541 C.ar    1  UNL1       -0.0022
      5 C          64.7436   91.6748   13.2721 C.ar    1  UNL1        0.0021
      6 C          64.7190   91.3824   14.7431 C.ar    1  UNL1        0.0512
      7 C          63.7287   90.4008   15.2961 C.ar    1  UNL1        0.0043
      8 C          62.7632   89.7115   14.3782 C.ar    1  UNL1        0.0001
      9 C          62.7878   90.0039   12.9072 C.ar    1  UNL1       -0.0005
     10 C          61.8223   89.3147   11.9892 C.ar    1  UNL1       -0.0017
     11 C          65.7853   92.2095   15.3980 C.2     1  UNL1        0.2491
     12 O          66.1107   92.2295   16.8621 O.2     1  UNL1       -0.2699
     13 N          66.4689   93.0131   14.3317 N.am    1  UNL1       -0.2702
     14 C          67.5980   93.9777   14.5424 C.3     1  UNL1        0.1155
     15 C          65.8251   92.6826   13.0179 C.3     1  UNL1        0.1206
     16 C          60.8813   88.9178    9.6003 C.3     1  UNL1        0.1410
     17 O          60.2991   90.2456    9.2156 O.3     1  UNL1       -0.3771
     18 H          59.3941   90.1197    8.8900 H       1  UNL1        0.2112
     19 C          61.4635   87.5901    9.9849 C.ar    1  UNL1        0.0825
     20 C          62.4140   86.7723    9.1615 C.ar    1  UNL1        0.1157
     21 N          62.7355   85.5237    9.9282 N.ar    1  UNL1       -0.2228
     22 C          61.9837   85.5698   11.2254 C.ar    1  UNL1        0.1749
     23 N          61.1976   86.8468   11.2604 N.ar    1  UNL1       -0.3361
     24 H          60.6103   87.1449   11.9921 H       1  UNL1        0.1673
     25 C          59.2736   86.9391    9.1006 C.3     1  UNL1        0.0031
     26 C          59.9158   88.2286    8.6824 C.3     1  UNL1        0.0340
     27 C          59.5924   88.8287    7.3462 C.3     1  UNL1        0.0031
@<TRIPOS>BOND
     1    25    26    1
     2    26    27    1
     3    26    16    1
     4    16    17    1
     5    16     1    1
     6     1     2   ar
     7     2     3   ar
     8     3     4   ar
     9     4     5   ar
    10     5     6   ar
    11     6     7   ar
    12     7     8   ar
    13     8     9   ar
    14     9    10   ar
    15     6    11    1
    16    11    12    2
    17    11    13   am
    18    13    14    1
    19    13    15    1
    20    16    19    1
    21    19    20   ar
    22    20    21   ar
    23    21    22   ar
    24    22    23   ar
    25    10     1   ar
    26    23    19   ar
    27     9     4   ar
    28    15     5    1
    29    17    18    1
    30    23    24    1
@<TRIPOS>MOLECULE
*****
 27 30 0 0 0
SMALL
GASTEIGER

@<TRIPOS>ATOM
      1 C          62.4647   89.4081   10.8352 C.ar    1  UNL1        0.0070
      2 C          63.1023   90.6501   10.2867 C.ar    1  UNL1       -0.0017
      3 C          64.0298   91.4585   11.1447 C.ar    1  UNL1       -0.0005
      4 C          64.3197   91.0249   12.5511 C.ar    1  UNL1       -0.0022
      5 C          65.2473   91.8334   13.4091 C.ar    1  UNL1        0.0021
      6 C          65.5372   91.3998   14.8155 C.ar    1  UNL1        0.0512
      7 C          64.8996   90.1577   15.3639 C.ar    1  UNL1        0.0043
      8 C          63.9721   89.3493   14.5059 C.ar    1  UNL1        0.0001
      9 C          63.6822   89.7829   13.0995 C.ar    1  UNL1       -0.0005
     10 C          62.7547   88.9745   12.2415 C.ar    1  UNL1       -0.0017
     11 C          66.4862   92.3918   15.4200 C.2     1  UNL1        0.2491
     12 O          67.0412   92.3452   16.8128 O.2     1  UNL1       -0.2699
     13 N          66.7827   93.4383   14.3873 N.am    1  UNL1       -0.2702
     14 C          67.6864   94.6222   14.5660 C.3     1  UNL1        0.1155
     15 C          66.0171   93.0933   13.1445 C.3     1  UNL1        0.1206
     16 C          61.5372   88.5996    9.9772 C.3     1  UNL1        0.1410
     17 O          62.7001   88.1506    9.1430 O.3     1  UNL1       -0.3771
     18 H          62.3849   87.8865    8.2644 H       1  UNL1        0.2112
     19 C          60.3742   89.0486   10.8114 C.ar    1  UNL1        0.0825
     20 C          59.7991   90.4335   10.8496 C.ar    1  UNL1        0.1157
     21 N          58.6516   90.4324   11.8157 N.ar    1  UNL1       -0.2228
     22 C          58.5176   89.0468   12.3746 C.ar    1  UNL1        0.1749
     23 N          59.5822   88.1916   11.7539 N.ar    1  UNL1       -0.3361
     24 H          59.7343   87.2357   11.9336 H       1  UNL1        0.1673
     25 C          59.7017   88.4778    8.1425 C.3     1  UNL1        0.0031
     26 C          60.6096   87.7912    9.1193 C.3     1  UNL1        0.0340
     27 C          60.5900   86.2959    9.2382 C.3     1  UNL1        0.0031
@<TRIPOS>BOND
     1    25    26    1
     2    26    27    1
     3    26    16    1
     4    16    17    1
     5    16     1    1
     6     1     2   ar
     7     2     3   ar
     8     3     4   ar
     9     4     5   ar
    10     5     6   ar
    11     6     7   ar
    12     7     8   ar
    13     8     9   ar
    14     9    10   ar
    15     6    11    1
    16    11    12    2
    17    11    13   am
    18    13    14    1
    19    13    15    1
    20    16    19    1
    21    19    20   ar
    22    20    21   ar
    23    21    22   ar
    24    22    23   ar
    25    10     1   ar
    26    23    19   ar
    27     9     4   ar
    28    15     5    1
    29    17    18    1
    30    23    24    1
@<TRIPOS>MOLECULE
*****
 27 30 0 0 0
SMALL
GASTEIGER

@<TRIPOS>ATOM
      1 C          64.3811   90.4565   14.3704 C.ar    1  UNL1        0.0070
      2 C          63.7233   90.9339   13.1098 C.ar    1  UNL1       -0.0017
      3 C          63.1595   89.9420   12.1360 C.ar    1  UNL1       -0.0005
      4 C          63.2536   88.4727   12.4228 C.ar    1  UNL1       -0.0022
      5 C          62.6899   87.4808   11.4489 C.ar    1  UNL1        0.0021
      6 C          62.7840   86.0115   11.7358 C.ar    1  UNL1        0.0512
      7 C          63.4418   85.5341   12.9965 C.ar    1  UNL1        0.0043
      8 C          64.0056   86.5260   13.9703 C.ar    1  UNL1        0.0001
      9 C          63.9115   87.9953   13.6835 C.ar    1  UNL1       -0.0005
     10 C          64.4752   88.9872   14.6572 C.ar    1  UNL1       -0.0017
     11 C          62.1422   85.2750   10.5975 C.2     1  UNL1        0.2491
     12 O          62.0138   83.7858   10.4716 O.2     1  UNL1       -0.2699
     13 N          61.6516   86.2891    9.6072 N.am    1  UNL1       -0.2702
     14 C          60.9463   85.9921    8.3171 C.3     1  UNL1        0.1155
     15 C          61.9900   87.6524   10.1334 C.3     1  UNL1        0.1206
     16 C          64.9449   91.4484   15.3443 C.3     1  UNL1        0.1410
     17 O          63.8591   91.1067   16.3210 O.3     1  UNL1       -0.3771
     18 H          63.7310   91.8472   16.9343 H       1  UNL1        0.2112
     19 C          66.0308   91.7901   14.3675 C.ar    1  UNL1        0.0825
     20 C          65.9954   92.9045   13.3641 C.ar    1  UNL1        0.1157
     21 N          67.2855   92.8806   12.5991 N.ar    1  UNL1       -0.2228
     22 C          68.1182   91.7514   13.1298 C.ar    1  UNL1        0.1749
     23 N          67.3428   91.0774   14.2227 N.ar    1  UNL1       -0.3361
     24 H          67.6423   90.3033   14.7521 H       1  UNL1        0.1673
     25 C          64.6266   93.0413   17.3719 C.3     1  UNL1        0.0031
     26 C          65.5087   92.4402   16.3181 C.3     1  UNL1        0.0340
     27 C          66.9547   92.8311   16.2381 C.3     1  UNL1        0.0031
@<TRIPOS>BOND
     1    25    26    1
     2    26    27    1
     3    26    16    1
     4    16    17    1
     5    16     1    1
     6     1     2   ar
     7     2     3   ar
     8     3     4   ar
     9     4     5   ar
    10     5     6   ar
    11     6     7   ar
    12     7     8   ar
    13     8     9   ar
    14     9    10   ar
    15     6    11    1
    16    11    12    2
    17    11    13   am
    18    13    14    1
    19    13    15    1
    20    16    19    1
    21    19    20   ar
    22    20    21   ar
    23    21    22   ar
    24    22    23   ar
    25    10     1   ar
    26    23    19   ar
    27     9     4   ar
    28    15     5    1
    29    17    18    1
    30    23    24    1
@<TRIPOS>MOLECULE
*****
 27 30 0 0 0
SMALL
GASTEIGER

@<TRIPOS>ATOM
      1 C          57.9825   94.4558   -2.0553 C.ar    1  UNL1        0.0070
      2 C          59.2903   94.7080   -2.7451 C.ar    1  UNL1       -0.0017
      3 C          60.5802   94.4257   -2.0335 C.ar    1  UNL1       -0.0005
      4 C          60.5623   93.8913   -0.6320 C.ar    1  UNL1       -0.0022
      5 C          61.8523   93.6091    0.0796 C.ar    1  UNL1        0.0021
      6 C          61.8343   93.0747    1.4811 C.ar    1  UNL1        0.0512
      7 C          60.5263   92.8225    2.1709 C.ar    1  UNL1        0.0043
      8 C          59.2365   93.1048    1.4593 C.ar    1  UNL1        0.0001
      9 C          59.2544   93.6392    0.0578 C.ar    1  UNL1       -0.0005
     10 C          57.9645   93.9214   -0.6538 C.ar    1  UNL1       -0.0017
     11 C          63.2552   92.8930    1.9261 C.2     1  UNL1        0.2491
     12 O          63.7016   92.3794    3.2629 O.2     1  UNL1       -0.2699
     13 N          64.1512   93.3152    0.7997 N.am    1  UNL1       -0.2702
     14 C          65.6511   93.2978    0.8123 C.3     1  UNL1        0.1155
     15 C          63.2843   93.7577   -0.3415 C.3     1  UNL1        0.1206
     16 C          56.6925   94.7380   -2.7670 C.3     1  UNL1        0.1410
     17 O          56.8357   96.1967   -2.4482 O.3     1  UNL1       -0.3771
     18 H          55.9629   96.6193   -2.4683 H       1  UNL1        0.2112
     19 C          56.5493   93.2794   -3.0857 C.ar    1  UNL1        0.0825
     20 C          57.2734   92.5387   -4.1707 C.ar    1  UNL1        0.1157
     21 N          56.8284   91.1067   -4.1310 N.ar    1  UNL1       -0.2228
     22 C          55.8292   90.9624   -3.0215 C.ar    1  UNL1        0.1749
     23 N          55.6567   92.3051   -2.3755 N.ar    1  UNL1       -0.3361
     24 H          55.0621   92.5109   -1.6183 H       1  UNL1        0.1673
     25 C          54.1868   95.4211   -2.6968 C.3     1  UNL1        0.0031
     26 C          55.4026   95.0202   -3.4786 C.3     1  UNL1        0.0340
     27 C          55.3284   94.9015   -4.9721 C.3     1  UNL1        0.0031
@<TRIPOS>BOND
     1    25    26    1
     2    26    27    1
     3    26    16    1
     4    16    17    1
     5    16     1    1
     6     1     2   ar
     7     2     3   ar
     8     3     4   ar
     9     4     5   ar
    10     5     6   ar
    11     6     7   ar
    12     7     8   ar
    13     8     9   ar
    14     9    10   ar
    15     6    11    1
    16    11    12    2
    17    11    13   am
    18    13    14    1
    19    13    15    1
    20    16    19    1
    21    19    20   ar
    22    20    21   ar
    23    21    22   ar
    24    22    23   ar
    25    10     1   ar
    26    23    19   ar
    27     9     4   ar
    28    15     5    1
    29    17    18    1
    30    23    24    1
