@<TRIPOS>MOLECULE
*****
 24 26 0 0 0
SMALL
GASTEIGER

@<TRIPOS>ATOM
      1 C          64.3791   91.1897   12.3356 C.ar    1  UNL1        0.0759
      2 C          63.9049   91.6677   10.9952 C.ar    1  UNL1        0.0168
      3 C          62.9741   90.8176   10.1821 C.ar    1  UNL1        0.0014
      4 C          62.5176   89.4896   10.7094 C.ar    1  UNL1        0.0023
      5 C          62.9919   89.0116   12.0498 C.ar    1  UNL1        0.0309
      6 C          63.9226   89.8617   12.8629 C.ar    1  UNL1        0.1533
      7 F          64.3969   89.3838   14.2033 F       1  UNL1       -0.2029
      8 C          61.5869   88.6396    9.8963 C.ar    1  UNL1        0.0002
      9 C          61.7173   87.1456    9.9254 C.ar    1  UNL1        0.0023
     10 C          60.7865   86.2955    9.1123 C.ar    1  UNL1        0.0296
     11 C          59.7254   86.9395    8.2701 C.ar    1  UNL1        0.1401
     12 F          58.7946   86.0895    7.4570 F       1  UNL1       -0.2042
     13 C          59.5950   88.4336    8.2410 C.ar    1  UNL1        0.0296
     14 C          60.5257   89.2836    9.0541 C.ar    1  UNL1        0.0023
     15 N          65.3099   92.0398   13.1487 N.pl3   1  UNL1       -0.3018
     16 C          67.2083   91.5697   14.8591 C.3     1  UNL1        0.0232
     17 C          65.7501   91.5815   14.5075 C.3     1  UNL1        0.0912
     18 C          65.8004   93.3481   12.6031 C.3     1  UNL1        0.1193
     19 C          66.6467   93.3743   11.3648 C.ar    1  UNL1        0.0168
     20 C          67.4975   92.1902   11.0127 C.ar    1  UNL1        0.0005
     21 C          68.3438   92.2164    9.7746 C.ar    1  UNL1        0.0204
     22 C          68.3393   93.4268    8.8885 C.ar    1  UNL1        0.0989
     23 N          67.4884   94.6108    9.2406 N.ar    1  UNL1       -0.2426
     24 C          66.6422   94.5846   10.4788 C.ar    1  UNL1        0.0962
@<TRIPOS>BOND
     1    16    17    1
     2    17    15    1
     3    15    18    1
     4    18    19    1
     5    19    20   ar
     6    20    21   ar
     7    21    22   ar
     8    22    23   ar
     9    23    24   ar
    10    15     1    1
    11     1     2   ar
    12     2     3   ar
    13     3     4   ar
    14     4     8    1
    15     8     9   ar
    16     9    10   ar
    17    10    11   ar
    18    11    12    1
    19    11    13   ar
    20    13    14   ar
    21     4     5   ar
    22     5     6   ar
    23     6     7    1
    24    24    19   ar
    25     6     1   ar
    26    14     8   ar
@<TRIPOS>MOLECULE
*****
 24 26 0 0 0
SMALL
GASTEIGER

@<TRIPOS>ATOM
      1 C          64.3970   90.6974   12.8843 C.ar    1  UNL1        0.0759
      2 C          63.8907   91.3776   11.6470 C.ar    1  UNL1        0.0168
      3 C          62.9677   90.6497   10.7153 C.ar    1  UNL1        0.0014
      4 C          62.5509   89.2416   11.0209 C.ar    1  UNL1        0.0023
      5 C          63.0572   88.5613   12.2583 C.ar    1  UNL1        0.0309
      6 C          63.9802   89.2892   13.1900 C.ar    1  UNL1        0.1533
      7 F          64.4865   88.6090   14.4273 F       1  UNL1       -0.2029
      8 C          61.6278   88.5136   10.0892 C.ar    1  UNL1        0.0002
      9 C          60.6519   89.2820    9.2483 C.ar    1  UNL1        0.0023
     10 C          59.7289   88.5541    8.3165 C.ar    1  UNL1        0.0296
     11 C          59.7817   87.0578    8.2258 C.ar    1  UNL1        0.1401
     12 F          58.8586   86.3298    7.2941 F       1  UNL1       -0.2042
     13 C          60.7576   86.2893    9.0667 C.ar    1  UNL1        0.0296
     14 C          61.6807   87.0173    9.9984 C.ar    1  UNL1        0.0023
     15 N          65.3201   91.4253   13.8160 N.pl3   1  UNL1       -0.3018
     16 C          65.7928   92.4806   16.1426 C.3     1  UNL1        0.0232
     17 C          64.9012   91.6896   15.2320 C.3     1  UNL1        0.0912
     18 C          66.6619   91.8890   13.3319 C.3     1  UNL1        0.1193
     19 C          66.7549   92.8303   12.1676 C.ar    1  UNL1        0.0168
     20 C          67.3458   92.3628   10.8706 C.ar    1  UNL1        0.0005
     21 C          67.4388   93.3041    9.7064 C.ar    1  UNL1        0.0204
     22 C          66.9410   94.7128    9.8392 C.ar    1  UNL1        0.0989
     23 N          66.3501   95.1803   11.1362 N.ar    1  UNL1       -0.2426
     24 C          66.2571   94.2390   12.3004 C.ar    1  UNL1        0.0962
@<TRIPOS>BOND
     1    16    17    1
     2    17    15    1
     3    15    18    1
     4    18    19    1
     5    19    20   ar
     6    20    21   ar
     7    21    22   ar
     8    22    23   ar
     9    23    24   ar
    10    15     1    1
    11     1     2   ar
    12     2     3   ar
    13     3     4   ar
    14     4     8    1
    15     8     9   ar
    16     9    10   ar
    17    10    11   ar
    18    11    12    1
    19    11    13   ar
    20    13    14   ar
    21     4     5   ar
    22     5     6   ar
    23     6     7    1
    24    24    19   ar
    25     6     1   ar
    26    14     8   ar
@<TRIPOS>MOLECULE
*****
 24 26 0 0 0
SMALL
GASTEIGER

@<TRIPOS>ATOM
      1 C          62.6600   89.6961   11.8036 C.ar    1  UNL1        0.0759
      2 C          63.1401   89.1062   13.0964 C.ar    1  UNL1        0.0168
      3 C          64.2587   89.7621   13.8505 C.ar    1  UNL1        0.0014
      4 C          64.8972   91.0078   13.3117 C.ar    1  UNL1        0.0023
      5 C          64.4171   91.5978   12.0187 C.ar    1  UNL1        0.0309
      6 C          63.2985   90.9419   11.2647 C.ar    1  UNL1        0.1533
      7 F          62.8184   91.5318    9.9719 F       1  UNL1       -0.2029
      8 C          66.0158   91.6637   14.0657 C.ar    1  UNL1        0.0002
      9 C          65.7826   92.1800   15.4546 C.ar    1  UNL1        0.0023
     10 C          66.9012   92.8359   16.2086 C.ar    1  UNL1        0.0296
     11 C          68.2530   92.9754   15.5738 C.ar    1  UNL1        0.1401
     12 F          69.3716   93.6313   16.3278 F       1  UNL1       -0.2042
     13 C          68.4863   92.4591   14.1848 C.ar    1  UNL1        0.0296
     14 C          67.3677   91.8033   13.4308 C.ar    1  UNL1        0.0023
     15 N          61.5414   89.0402   11.0495 N.pl3   1  UNL1       -0.3018
     16 C          59.4758   90.5640   11.4516 C.3     1  UNL1        0.0232
     17 C          60.1242   89.2127   11.5100 C.3     1  UNL1        0.0912
     18 C          61.8399   88.2120    9.8352 C.3     1  UNL1        0.1193
     19 C          62.2950   86.7910    9.9898 C.ar    1  UNL1        0.0168
     20 C          62.8176   86.0375    8.8028 C.ar    1  UNL1        0.0005
     21 C          63.2727   84.6166    8.9574 C.ar    1  UNL1        0.0204
     22 C          63.2050   83.9492   10.2991 C.ar    1  UNL1        0.0989
     23 N          62.6824   84.7027   11.4861 N.ar    1  UNL1       -0.2426
     24 C          62.2273   86.1236   11.3314 C.ar    1  UNL1        0.0962
@<TRIPOS>BOND
     1    16    17    1
     2    17    15    1
     3    15    18    1
     4    18    19    1
     5    19    20   ar
     6    20    21   ar
     7    21    22   ar
     8    22    23   ar
     9    23    24   ar
    10    15     1    1
    11     1     2   ar
    12     2     3   ar
    13     3     4   ar
    14     4     8    1
    15     8     9   ar
    16     9    10   ar
    17    10    11   ar
    18    11    12    1
    19    11    13   ar
    20    13    14   ar
    21     4     5   ar
    22     5     6   ar
    23     6     7    1
    24    24    19   ar
    25     6     1   ar
    26    14     8   ar
@<TRIPOS>MOLECULE
*****
 24 26 0 0 0
SMALL
GASTEIGER

@<TRIPOS>ATOM
      1 C          62.9187   89.8081   11.8559 C.ar    1  UNL1        0.0759
      2 C          63.3752   89.2263   13.1608 C.ar    1  UNL1        0.0168
      3 C          64.4810   89.8860   13.9303 C.ar    1  UNL1        0.0014
      4 C          65.1302   91.1277   13.3948 C.ar    1  UNL1        0.0023
      5 C          64.6737   91.7096   12.0897 C.ar    1  UNL1        0.0309
      6 C          63.5679   91.0498   11.3203 C.ar    1  UNL1        0.1533
      7 F          63.1114   91.6317   10.0153 F       1  UNL1       -0.2029
      8 C          66.2359   91.7875   14.1642 C.ar    1  UNL1        0.0002
      9 C          65.9778   92.3160   15.5441 C.ar    1  UNL1        0.0023
     10 C          67.0835   92.9758   16.3135 C.ar    1  UNL1        0.0296
     11 C          68.4474   93.1070   15.7032 C.ar    1  UNL1        0.1401
     12 F          69.5531   93.7668   16.4726 F       1  UNL1       -0.2042
     13 C          68.7056   92.5785   14.3232 C.ar    1  UNL1        0.0296
     14 C          67.5998   91.9187   13.5538 C.ar    1  UNL1        0.0023
     15 N          61.8130   89.1484   11.0864 N.pl3   1  UNL1       -0.3018
     16 C          59.6476   90.5829   11.0305 C.3     1  UNL1        0.0232
     17 C          60.8275   89.9838   10.3242 C.3     1  UNL1        0.0912
     18 C          61.6928   87.6532   11.0791 C.3     1  UNL1        0.1193
     19 C          61.4470   86.9268    9.7899 C.ar    1  UNL1        0.0168
     20 C          62.5597   86.1628    9.1356 C.ar    1  UNL1        0.0005
     21 C          62.3139   85.4365    7.8465 C.ar    1  UNL1        0.0204
     22 C          60.9554   85.4741    7.2116 C.ar    1  UNL1        0.0989
     23 N          59.8427   86.2381    7.8659 N.ar    1  UNL1       -0.2426
     24 C          60.0885   86.9645    9.1550 C.ar    1  UNL1        0.0962
@<TRIPOS>BOND
     1    16    17    1
     2    17    15    1
     3    15    18    1
     4    18    19    1
     5    19    20   ar
     6    20    21   ar
     7    21    22   ar
     8    22    23   ar
     9    23    24   ar
    10    15     1    1
    11     1     2   ar
    12     2     3   ar
    13     3     4   ar
    14     4     8    1
    15     8     9   ar
    16     9    10   ar
    17    10    11   ar
    18    11    12    1
    19    11    13   ar
    20    13    14   ar
    21     4     5   ar
    22     5     6   ar
    23     6     7    1
    24    24    19   ar
    25     6     1   ar
    26    14     8   ar
@<TRIPOS>MOLECULE
*****
 24 26 0 0 0
SMALL
GASTEIGER

@<TRIPOS>ATOM
      1 C          63.2949   84.1828   11.8069 C.ar    1  UNL1        0.0759
      2 C          62.3044   85.1490   12.3859 C.ar    1  UNL1        0.0168
      3 C          61.5150   86.0469   11.4800 C.ar    1  UNL1        0.0014
      4 C          61.7161   85.9785    9.9951 C.ar    1  UNL1        0.0023
      5 C          62.7067   85.0123    9.4161 C.ar    1  UNL1        0.0309
      6 C          63.4961   84.1144   10.3220 C.ar    1  UNL1        0.1533
      7 F          64.4866   83.1482    9.7431 F       1  UNL1       -0.2029
      8 C          60.9267   86.8764    9.0892 C.ar    1  UNL1        0.0002
      9 C          60.1240   86.2902    7.9658 C.ar    1  UNL1        0.0023
     10 C          59.3347   87.1881    7.0599 C.ar    1  UNL1        0.0296
     11 C          59.3479   88.6722    7.2774 C.ar    1  UNL1        0.1401
     12 F          58.5585   89.5701    6.3715 F       1  UNL1       -0.2042
     13 C          60.1506   89.2584    8.4009 C.ar    1  UNL1        0.0296
     14 C          60.9400   88.3605    9.3068 C.ar    1  UNL1        0.0023
     15 N          64.0843   83.2849   12.7129 N.pl3   1  UNL1       -0.3018
     16 C          62.8647   80.9908   12.7057 C.3     1  UNL1        0.0232
     17 C          64.1028   81.8045   12.4713 C.3     1  UNL1        0.0912
     18 C          64.8552   83.8673   13.8602 C.3     1  UNL1        0.1193
     19 C          64.1534   84.7076   14.8857 C.ar    1  UNL1        0.0168
     20 C          64.5325   86.1481   15.0618 C.ar    1  UNL1        0.0005
     21 C          63.8307   86.9883   16.0873 C.ar    1  UNL1        0.0204
     22 C          62.7499   86.3879   16.9366 C.ar    1  UNL1        0.0989
     23 N          62.3708   84.9474   16.7605 N.ar    1  UNL1       -0.2426
     24 C          63.0726   84.1072   15.7350 C.ar    1  UNL1        0.0962
@<TRIPOS>BOND
     1    16    17    1
     2    17    15    1
     3    15    18    1
     4    18    19    1
     5    19    20   ar
     6    20    21   ar
     7    21    22   ar
     8    22    23   ar
     9    23    24   ar
    10    15     1    1
    11     1     2   ar
    12     2     3   ar
    13     3     4   ar
    14     4     8    1
    15     8     9   ar
    16     9    10   ar
    17    10    11   ar
    18    11    12    1
    19    11    13   ar
    20    13    14   ar
    21     4     5   ar
    22     5     6   ar
    23     6     7    1
    24    24    19   ar
    25     6     1   ar
    26    14     8   ar
@<TRIPOS>MOLECULE
*****
 24 26 0 0 0
SMALL
GASTEIGER

@<TRIPOS>ATOM
      1 C          63.4478   89.1869   12.8078 C.ar    1  UNL1        0.0759
      2 C          62.9256   89.8596   11.5731 C.ar    1  UNL1        0.0168
      3 C          62.4502   89.0349   10.4138 C.ar    1  UNL1        0.0014
      4 C          62.4970   87.5376   10.4892 C.ar    1  UNL1        0.0023
      5 C          63.0192   86.8648   11.7241 C.ar    1  UNL1        0.0309
      6 C          63.4946   87.6894   12.8834 C.ar    1  UNL1        0.1533
      7 F          64.0168   87.0167   14.1182 F       1  UNL1       -0.2029
      8 C          62.0216   86.7129    9.3299 C.ar    1  UNL1        0.0002
      9 C          60.6077   86.8435    8.8465 C.ar    1  UNL1        0.0023
     10 C          60.1323   86.0188    7.6872 C.ar    1  UNL1        0.0296
     11 C          61.0709   85.0637    7.0113 C.ar    1  UNL1        0.1401
     12 F          60.5955   84.2390    5.8520 F       1  UNL1       -0.2042
     13 C          62.4849   84.9331    7.4948 C.ar    1  UNL1        0.0296
     14 C          62.9603   85.7578    8.6541 C.ar    1  UNL1        0.0023
     15 N          63.9232   90.0115   13.9672 N.pl3   1  UNL1       -0.3018
     16 C          63.1561   90.0456   16.4492 C.3     1  UNL1        0.0232
     17 C          63.9557   89.4197   15.3452 C.3     1  UNL1        0.0912
     18 C          64.3660   91.4278   13.7485 C.3     1  UNL1        0.1193
     19 C          65.7227   91.8694   14.2117 C.ar    1  UNL1        0.0168
     20 C          65.9152   92.3485   15.6200 C.ar    1  UNL1        0.0005
     21 C          67.2719   92.7901   16.0831 C.ar    1  UNL1        0.0204
     22 C          68.4360   92.7526   15.1379 C.ar    1  UNL1        0.0989
     23 N          68.2435   92.2736   13.7296 N.ar    1  UNL1       -0.2426
     24 C          66.8868   91.8320   13.2665 C.ar    1  UNL1        0.0962
@<TRIPOS>BOND
     1    16    17    1
     2    17    15    1
     3    15    18    1
     4    18    19    1
     5    19    20   ar
     6    20    21   ar
     7    21    22   ar
     8    22    23   ar
     9    23    24   ar
    10    15     1    1
    11     1     2   ar
    12     2     3   ar
    13     3     4   ar
    14     4     8    1
    15     8     9   ar
    16     9    10   ar
    17    10    11   ar
    18    11    12    1
    19    11    13   ar
    20    13    14   ar
    21     4     5   ar
    22     5     6   ar
    23     6     7    1
    24    24    19   ar
    25     6     1   ar
    26    14     8   ar
@<TRIPOS>MOLECULE
*****
 24 26 0 0 0
SMALL
GASTEIGER

@<TRIPOS>ATOM
      1 C          62.2785   88.6446   11.0738 C.ar    1  UNL1        0.0759
      2 C          63.0072   88.2458   12.3227 C.ar    1  UNL1        0.0168
      3 C          63.1620   86.7948   12.6698 C.ar    1  UNL1        0.0014
      4 C          62.5880   85.7425   11.7680 C.ar    1  UNL1        0.0023
      5 C          61.8592   86.1413   10.5190 C.ar    1  UNL1        0.0309
      6 C          61.7045   87.5924   10.1719 C.ar    1  UNL1        0.1533
      7 F          60.9758   87.9912    8.9230 F       1  UNL1       -0.2029
      8 C          62.7427   84.2915   12.1152 C.ar    1  UNL1        0.0002
      9 C          62.5639   83.8363   13.5332 C.ar    1  UNL1        0.0023
     10 C          62.7186   82.3853   13.8804 C.ar    1  UNL1        0.0296
     11 C          63.0522   81.3894   12.8095 C.ar    1  UNL1        0.1401
     12 F          63.2069   79.9383   13.1566 F       1  UNL1       -0.2042
     13 C          63.2310   81.8445   11.3914 C.ar    1  UNL1        0.0296
     14 C          63.0763   83.2955   11.0442 C.ar    1  UNL1        0.0023
     15 N          62.1238   90.0957   10.7266 N.pl3   1  UNL1       -0.3018
     16 C          59.7038   90.0891   11.6720 C.3     1  UNL1        0.0232
     17 C          60.7968   90.7721   10.9046 C.3     1  UNL1        0.0912
     18 C          63.2960   90.8704   10.2015 C.3     1  UNL1        0.1193
     19 C          64.1929   91.6088   11.1505 C.ar    1  UNL1        0.0168
     20 C          65.2129   92.5730   10.6217 C.ar    1  UNL1        0.0005
     21 C          66.1097   93.3114   11.5706 C.ar    1  UNL1        0.0204
     22 C          65.9864   93.0855   13.0484 C.ar    1  UNL1        0.0989
     23 N          64.9664   92.1213   13.5772 N.ar    1  UNL1       -0.2426
     24 C          64.0696   91.3829   12.6283 C.ar    1  UNL1        0.0962
@<TRIPOS>BOND
     1    16    17    1
     2    17    15    1
     3    15    18    1
     4    18    19    1
     5    19    20   ar
     6    20    21   ar
     7    21    22   ar
     8    22    23   ar
     9    23    24   ar
    10    15     1    1
    11     1     2   ar
    12     2     3   ar
    13     3     4   ar
    14     4     8    1
    15     8     9   ar
    16     9    10   ar
    17    10    11   ar
    18    11    12    1
    19    11    13   ar
    20    13    14   ar
    21     4     5   ar
    22     5     6   ar
    23     6     7    1
    24    24    19   ar
    25     6     1   ar
    26    14     8   ar
@<TRIPOS>MOLECULE
*****
 24 26 0 0 0
SMALL
GASTEIGER

@<TRIPOS>ATOM
      1 C          63.2736   85.7983   12.8720 C.ar    1  UNL1        0.0759
      2 C          62.4568   84.9194   11.9718 C.ar    1  UNL1        0.0168
      3 C          61.6625   85.5242   10.8524 C.ar    1  UNL1        0.0014
      4 C          61.6848   87.0079   10.6331 C.ar    1  UNL1        0.0023
      5 C          62.5016   87.8869   11.5334 C.ar    1  UNL1        0.0309
      6 C          63.2960   87.2820   12.6528 C.ar    1  UNL1        0.1533
      7 F          64.1127   88.1609   13.5531 F       1  UNL1       -0.2029
      8 C          60.8905   87.6127    9.5137 C.ar    1  UNL1        0.0002
      9 C          60.0911   86.7317    8.6000 C.ar    1  UNL1        0.0023
     10 C          59.2967   87.3366    7.4805 C.ar    1  UNL1        0.0296
     11 C          59.3017   88.8223    7.2748 C.ar    1  UNL1        0.1401
     12 F          58.5074   89.4272    6.1553 F       1  UNL1       -0.2042
     13 C          60.1011   89.7034    8.1885 C.ar    1  UNL1        0.0296
     14 C          60.8955   89.0986    9.3080 C.ar    1  UNL1        0.0023
     15 N          64.0679   85.1934   13.9915 N.pl3   1  UNL1       -0.3018
     16 C          63.4827   85.9142   16.4180 C.3     1  UNL1        0.0232
     17 C          64.3754   86.0036   15.2160 C.3     1  UNL1        0.0912
     18 C          64.5548   83.7786   13.8865 C.3     1  UNL1        0.1193
     19 C          63.5697   82.6520   13.7844 C.ar    1  UNL1        0.0168
     20 C          63.7714   81.5693   12.7661 C.ar    1  UNL1        0.0005
     21 C          62.7863   80.4428   12.6640 C.ar    1  UNL1        0.0204
     22 C          61.5995   80.3989   13.5803 C.ar    1  UNL1        0.0989
     23 N          61.3977   81.4817   14.5986 N.ar    1  UNL1       -0.2426
     24 C          62.3828   82.6082   14.7007 C.ar    1  UNL1        0.0962
@<TRIPOS>BOND
     1    16    17    1
     2    17    15    1
     3    15    18    1
     4    18    19    1
     5    19    20   ar
     6    20    21   ar
     7    21    22   ar
     8    22    23   ar
     9    23    24   ar
    10    15     1    1
    11     1     2   ar
    12     2     3   ar
    13     3     4   ar
    14     4     8    1
    15     8     9   ar
    16     9    10   ar
    17    10    11   ar
    18    11    12    1
    19    11    13   ar
    20    13    14   ar
    21     4     5   ar
    22     5     6   ar
    23     6     7    1
    24    24    19   ar
    25     6     1   ar
    26    14     8   ar
@<TRIPOS>MOLECULE
*****
 24 26 0 0 0
SMALL
GASTEIGER

@<TRIPOS>ATOM
      1 C          63.1147   88.0215   12.3133 C.ar    1  UNL1        0.0759
      2 C          62.3044   87.2343   11.3267 C.ar    1  UNL1        0.0168
      3 C          62.1724   85.7480   11.4808 C.ar    1  UNL1        0.0014
      4 C          62.8508   85.0491   12.6215 C.ar    1  UNL1        0.0023
      5 C          63.6612   85.8364   13.6082 C.ar    1  UNL1        0.0309
      6 C          63.7932   87.3226   13.4541 C.ar    1  UNL1        0.1533
      7 F          64.6035   88.1099   14.4407 F       1  UNL1       -0.2029
      8 C          62.7188   83.5629   12.7756 C.ar    1  UNL1        0.0002
      9 C          62.2726   82.9812   14.0842 C.ar    1  UNL1        0.0023
     10 C          62.1406   81.4950   14.2383 C.ar    1  UNL1        0.0296
     11 C          62.4549   80.5904   13.0837 C.ar    1  UNL1        0.1401
     12 F          62.3229   79.1042   13.2378 F       1  UNL1       -0.2042
     13 C          62.9011   81.1721   11.7750 C.ar    1  UNL1        0.0296
     14 C          63.0331   82.6583   11.6210 C.ar    1  UNL1        0.0023
     15 N          63.2467   89.5078   12.1593 N.pl3   1  UNL1       -0.3018
     16 C          61.8510   90.5834   10.2500 C.3     1  UNL1        0.0232
     17 C          63.1723   90.1300   10.7964 C.3     1  UNL1        0.0912
     18 C          63.4531   90.3717   13.3679 C.3     1  UNL1        0.1193
     19 C          64.7009   91.1940   13.4979 C.ar    1  UNL1        0.0168
     20 C          65.6310   90.9682   14.6528 C.ar    1  UNL1        0.0005
     21 C          66.8787   91.7905   14.7827 C.ar    1  UNL1        0.0204
     22 C          67.1964   92.8386   13.7577 C.ar    1  UNL1        0.0989
     23 N          66.2663   93.0643   12.6028 N.ar    1  UNL1       -0.2426
     24 C          65.0186   92.2421   12.4729 C.ar    1  UNL1        0.0962
@<TRIPOS>BOND
     1    16    17    1
     2    17    15    1
     3    15    18    1
     4    18    19    1
     5    19    20   ar
     6    20    21   ar
     7    21    22   ar
     8    22    23   ar
     9    23    24   ar
    10    15     1    1
    11     1     2   ar
    12     2     3   ar
    13     3     4   ar
    14     4     8    1
    15     8     9   ar
    16     9    10   ar
    17    10    11   ar
    18    11    12    1
    19    11    13   ar
    20    13    14   ar
    21     4     5   ar
    22     5     6   ar
    23     6     7    1
    24    24    19   ar
    25     6     1   ar
    26    14     8   ar
