@<TRIPOS>MOLECULE
*****
 25 29 0 0 0
SMALL
GASTEIGER

@<TRIPOS>ATOM
      1 O          73.6284   75.5801   16.8252 O.2     1  UNL1       -0.2523
      2 C          72.9949   75.2289   15.5117 C.2     1  UNL1        0.3072
      3 N          72.8520   76.2736   14.4448 N.am    1  UNL1       -0.2639
      4 C          73.2932   77.7036   14.5465 C.3     1  UNL1        0.0967
      5 C          72.9568   78.3855   13.2535 C.3     1  UNL1        0.0430
      6 C          73.0215   79.6907   12.5172 C.3     1  UNL1        0.0939
      7 N          72.4125   79.4887   11.1613 N.pl3   1  UNL1       -0.2931
      8 C          71.9713   78.0587   11.0597 C.3     1  UNL1        0.0939
      9 C          72.3077   77.3768   12.3527 C.3     1  UNL1        0.0430
     10 C          72.2429   76.0716   13.0890 C.3     1  UNL1        0.0967
     11 N          72.5042   73.8331   15.2652 N.am    1  UNL1       -0.2640
     12 C          71.8531   73.3366   14.0083 C.3     1  UNL1        0.0950
     13 C          71.5249   71.8853   14.1985 C.3     1  UNL1        0.0232
     14 C          71.9731   71.4849   15.5728 C.3     1  UNL1        0.0200
     15 C          71.3679   70.2811   14.9136 C.3     1  UNL1        0.0017
     16 C          71.4421   69.1367   15.8805 C.3     1  UNL1        0.0001
     17 C          72.0932   69.6332   17.1373 C.3     1  UNL1        0.0001
     18 C          72.4214   71.0845   16.9472 C.3     1  UNL1        0.0017
     19 C          72.5784   72.6887   16.2321 C.3     1  UNL1        0.0949
     20 C          72.2696   80.5334   10.0944 C.ar    1  UNL1        0.1317
     21 C          72.1348   80.1245    8.6576 C.ar    1  UNL1        0.0343
     22 C          71.9919   81.1691    7.5907 C.ar    1  UNL1        0.0045
     23 C          71.9839   82.6228    7.9606 C.ar    1  UNL1        0.0208
     24 C          72.1188   83.0317    9.3975 C.ar    1  UNL1        0.1003
     25 N          72.2616   81.9870   10.4644 N.ar    1  UNL1       -0.2292
@<TRIPOS>BOND
     1     1     2    2
     2     2     3   am
     3     3     4    1
     4     5     4    1
     5     5     6    1
     6     6     7    1
     7     7    20    1
     8    20    21   ar
     9    21    22   ar
    10    22    23   ar
    11    23    24   ar
    12    24    25   ar
    13     7     8    1
    14     9     8    1
    15     9    10    1
    16     2    11   am
    17    11    12    1
    18    12    13    1
    19    13    14    1
    20    14    15    1
    21    15    16    1
    22    16    17    1
    23    17    18    1
    24    14    19    1
    25    10     3    1
    26    19    11    1
    27     9     5    1
    28    18    14    1
    29    25    20   ar
@<TRIPOS>MOLECULE
*****
 25 29 0 0 0
SMALL
GASTEIGER

@<TRIPOS>ATOM
      1 O          69.6582   74.5347   16.7111 O.2     1  UNL1       -0.2523
      2 C          70.6946   74.1881   15.6837 C.2     1  UNL1        0.3072
      3 N          71.1098   75.2066   14.6638 N.am    1  UNL1       -0.2639
      4 C          70.5795   76.6049   14.5477 C.3     1  UNL1        0.0967
      5 C          71.2700   77.2682   13.3931 C.3     1  UNL1        0.0430
      6 C          71.3691   78.5423   12.6078 C.3     1  UNL1        0.0939
      7 N          72.3874   78.3413   11.5249 N.pl3   1  UNL1       -0.2931
      8 C          72.9177   76.9430   11.6409 C.3     1  UNL1        0.0939
      9 C          72.2272   76.2797   12.7955 C.3     1  UNL1        0.0430
     10 C          72.1281   75.0056   13.5808 C.3     1  UNL1        0.0967
     11 N          71.3158   72.8228   15.6762 N.am    1  UNL1       -0.2640
     12 C          72.3590   72.3341   14.7154 C.3     1  UNL1        0.0950
     13 C          72.6909   70.9158   15.0735 C.3     1  UNL1        0.0232
     14 C          71.8529   70.5279   16.2556 C.3     1  UNL1        0.0200
     15 C          72.7027   69.3493   15.8832 C.3     1  UNL1        0.0017
     16 C          72.3898   68.2330   16.8350 C.3     1  UNL1        0.0001
     17 C          71.3467   68.7217   17.7957 C.3     1  UNL1        0.0001
     18 C          71.0148   70.1400   17.4376 C.3     1  UNL1        0.0017
     19 C          71.0030   71.7065   16.6280 C.3     1  UNL1        0.0949
     20 C          72.8026   79.3599   10.5050 C.ar    1  UNL1        0.1317
     21 C          72.9345   80.8020   10.8958 C.ar    1  UNL1        0.0343
     22 C          73.3497   81.8205    9.8759 C.ar    1  UNL1        0.0045
     23 C          73.6329   81.3969    8.4651 C.ar    1  UNL1        0.0208
     24 C          73.5010   79.9548    8.0743 C.ar    1  UNL1        0.1003
     25 N          73.0859   78.9363    9.0942 N.ar    1  UNL1       -0.2292
@<TRIPOS>BOND
     1     1     2    2
     2     2     3   am
     3     3     4    1
     4     5     4    1
     5     5     6    1
     6     6     7    1
     7     7    20    1
     8    20    21   ar
     9    21    22   ar
    10    22    23   ar
    11    23    24   ar
    12    24    25   ar
    13     7     8    1
    14     9     8    1
    15     9    10    1
    16     2    11   am
    17    11    12    1
    18    12    13    1
    19    13    14    1
    20    14    15    1
    21    15    16    1
    22    16    17    1
    23    17    18    1
    24    14    19    1
    25    10     3    1
    26    19    11    1
    27     9     5    1
    28    18    14    1
    29    25    20   ar
@<TRIPOS>MOLECULE
*****
 25 29 0 0 0
SMALL
GASTEIGER

@<TRIPOS>ATOM
      1 O          60.3183   92.0489    0.3264 O.2     1  UNL1       -0.2523
      2 C          60.0339   93.5113    0.1514 C.2     1  UNL1        0.3072
      3 N          58.7430   93.9552   -0.4702 N.am    1  UNL1       -0.2639
      4 C          57.6469   93.0574   -0.9625 C.3     1  UNL1        0.0967
      5 C          56.5480   93.9221   -1.5053 C.3     1  UNL1        0.0430
      6 C          55.1914   93.9017   -2.1449 C.3     1  UNL1        0.0939
      7 N          54.7700   95.3215   -2.3834 N.pl3   1  UNL1       -0.2931
      8 C          55.8661   96.2193   -1.8911 C.3     1  UNL1        0.0939
      9 C          56.9650   95.3545   -1.3484 C.3     1  UNL1        0.0430
     10 C          58.3216   95.3749   -0.7087 C.3     1  UNL1        0.0967
     11 N          61.0405   94.5297    0.5981 N.am    1  UNL1       -0.2640
     12 C          60.8964   96.0187    0.4886 C.3     1  UNL1        0.0950
     13 C          62.1347   96.6472    1.0556 C.3     1  UNL1        0.0232
     14 C          63.0443   95.5466    1.5155 C.3     1  UNL1        0.0200
     15 C          63.7205   96.8554    1.7982 C.3     1  UNL1        0.0017
     16 C          65.0479   96.5635    2.4329 C.3     1  UNL1        0.0001
     17 C          65.1921   95.0745    2.5424 C.3     1  UNL1        0.0001
     18 C          63.9537   94.4460    1.9754 C.3     1  UNL1        0.0017
     19 C          62.3679   94.2379    1.2328 C.3     1  UNL1        0.0949
     20 C          53.4791   95.7654   -3.0050 C.ar    1  UNL1        0.1317
     21 C          52.2372   95.8592   -2.1690 C.ar    1  UNL1        0.0343
     22 C          50.9463   96.3031   -2.7907 C.ar    1  UNL1        0.0045
     23 C          50.8972   96.6533   -4.2484 C.ar    1  UNL1        0.0208
     24 C          52.1391   96.5596   -5.0844 C.ar    1  UNL1        0.1003
     25 N          53.4300   96.1156   -4.4628 N.ar    1  UNL1       -0.2292
@<TRIPOS>BOND
     1     1     2    2
     2     2     3   am
     3     3     4    1
     4     5     4    1
     5     5     6    1
     6     6     7    1
     7     7    20    1
     8    20    21   ar
     9    21    22   ar
    10    22    23   ar
    11    23    24   ar
    12    24    25   ar
    13     7     8    1
    14     9     8    1
    15     9    10    1
    16     2    11   am
    17    11    12    1
    18    12    13    1
    19    13    14    1
    20    14    15    1
    21    15    16    1
    22    16    17    1
    23    17    18    1
    24    14    19    1
    25    10     3    1
    26    19    11    1
    27     9     5    1
    28    18    14    1
    29    25    20   ar
@<TRIPOS>MOLECULE
*****
 25 29 0 0 0
SMALL
GASTEIGER

@<TRIPOS>ATOM
      1 O          65.8074   92.4911   15.2723 O.2     1  UNL1       -0.2523
      2 C          65.3884   91.8826   13.9669 C.2     1  UNL1        0.3072
      3 N          64.9037   90.4638   13.9220 N.am    1  UNL1       -0.2639
      4 C          64.7839   89.5356   15.0941 C.3     1  UNL1        0.0967
      5 C          64.2599   88.2222   14.5936 C.3     1  UNL1        0.0430
      6 C          63.8619   86.8368   15.0086 C.3     1  UNL1        0.0939
      7 N          63.4120   86.0972   13.7836 N.pl3   1  UNL1       -0.2931
      8 C          63.5319   87.0255   12.6115 C.3     1  UNL1        0.0939
      9 C          64.0559   88.3388   13.1120 C.3     1  UNL1        0.0430
     10 C          64.4538   89.7242   12.6970 C.3     1  UNL1        0.0967
     11 N          65.4541   92.6931   12.7064 N.am    1  UNL1       -0.2640
     12 C          65.0706   92.2225   11.3347 C.3     1  UNL1        0.0950
     13 C          65.2943   93.3549   10.3768 C.3     1  UNL1        0.0232
     14 C          65.8161   94.5254   11.1565 C.3     1  UNL1        0.0200
     15 C          65.7173   94.9344    9.7167 C.3     1  UNL1        0.0017
     16 C          66.1780   96.3577    9.6066 C.3     1  UNL1        0.0001
     17 C          66.5615   96.8282   10.9782 C.3     1  UNL1        0.0001
     18 C          66.3378   95.6958   11.9361 C.3     1  UNL1        0.0017
     19 C          65.9148   94.1163   12.5963 C.3     1  UNL1        0.0949
     20 C          62.9274   84.6784   13.7387 C.ar    1  UNL1        0.1317
     21 C          62.8937   83.9382   12.4345 C.ar    1  UNL1        0.0343
     22 C          62.4091   82.5194   12.3895 C.ar    1  UNL1        0.0045
     23 C          61.9580   81.8407   13.6488 C.ar    1  UNL1        0.0208
     24 C          61.9916   82.5808   14.9530 C.ar    1  UNL1        0.1003
     25 N          62.4762   83.9997   14.9980 N.ar    1  UNL1       -0.2292
@<TRIPOS>BOND
     1     1     2    2
     2     2     3   am
     3     3     4    1
     4     5     4    1
     5     5     6    1
     6     6     7    1
     7     7    20    1
     8    20    21   ar
     9    21    22   ar
    10    22    23   ar
    11    23    24   ar
    12    24    25   ar
    13     7     8    1
    14     9     8    1
    15     9    10    1
    16     2    11   am
    17    11    12    1
    18    12    13    1
    19    13    14    1
    20    14    15    1
    21    15    16    1
    22    16    17    1
    23    17    18    1
    24    14    19    1
    25    10     3    1
    26    19    11    1
    27     9     5    1
    28    18    14    1
    29    25    20   ar
@<TRIPOS>MOLECULE
*****
 25 29 0 0 0
SMALL
GASTEIGER

@<TRIPOS>ATOM
      1 O          63.4458   86.4946   16.7144 O.2     1  UNL1       -0.2523
      2 C          63.5349   86.6683   15.2272 C.2     1  UNL1        0.3072
      3 N          63.9260   87.9961   14.6492 N.am    1  UNL1       -0.2639
      4 C          64.2552   89.2345   15.4289 C.3     1  UNL1        0.0967
      5 C          64.5891   90.3223   14.4516 C.3     1  UNL1        0.0430
      6 C          64.9989   91.7601   14.3295 C.3     1  UNL1        0.0939
      7 N          65.1294   92.0825   12.8704 N.pl3   1  UNL1       -0.2931
      8 C          64.8002   90.8441   12.0907 C.3     1  UNL1        0.0939
      9 C          64.4663   89.7562   13.0679 C.3     1  UNL1        0.0430
     10 C          64.0565   88.3185   13.1901 C.3     1  UNL1        0.0967
     11 N          63.2331   85.5141   14.3180 N.am    1  UNL1       -0.2640
     12 C          63.2799   85.5370   12.8189 C.3     1  UNL1        0.0950
     13 C          62.9072   84.1714   12.3226 C.3     1  UNL1        0.0232
     14 C          62.6299   83.3045   13.5150 C.3     1  UNL1        0.0200
     15 C          62.4285   82.4747   12.2817 C.3     1  UNL1        0.0017
     16 C          62.0268   81.0951   12.7120 C.3     1  UNL1        0.0001
     17 C          61.9799   81.0722   14.2111 C.3     1  UNL1        0.0001
     18 C          62.3527   82.4377   14.7074 C.3     1  UNL1        0.0017
     19 C          62.8314   84.1344   14.7482 C.3     1  UNL1        0.0949
     20 C          65.5205   93.4103   12.2923 C.ar    1  UNL1        0.1317
     21 C          65.3536   93.6676   10.8241 C.ar    1  UNL1        0.0343
     22 C          65.7446   94.9954   10.2461 C.ar    1  UNL1        0.0045
     23 C          66.3025   96.0659   11.1364 C.ar    1  UNL1        0.0208
     24 C          66.4694   95.8086   12.6046 C.ar    1  UNL1        0.1003
     25 N          66.0784   94.4808   13.1826 N.ar    1  UNL1       -0.2292
@<TRIPOS>BOND
     1     1     2    2
     2     2     3   am
     3     3     4    1
     4     5     4    1
     5     5     6    1
     6     6     7    1
     7     7    20    1
     8    20    21   ar
     9    21    22   ar
    10    22    23   ar
    11    23    24   ar
    12    24    25   ar
    13     7     8    1
    14     9     8    1
    15     9    10    1
    16     2    11   am
    17    11    12    1
    18    12    13    1
    19    13    14    1
    20    14    15    1
    21    15    16    1
    22    16    17    1
    23    17    18    1
    24    14    19    1
    25    10     3    1
    26    19    11    1
    27     9     5    1
    28    18    14    1
    29    25    20   ar
@<TRIPOS>MOLECULE
*****
 25 29 0 0 0
SMALL
GASTEIGER

@<TRIPOS>ATOM
      1 O          63.4474   87.0569   13.2666 O.2     1  UNL1       -0.2523
      2 C          62.7511   86.3122   12.1664 C.2     1  UNL1        0.3072
      3 N          62.0827   87.0671   11.0559 N.am    1  UNL1       -0.2639
      4 C          62.0281   88.5592   10.9122 C.3     1  UNL1        0.0967
      5 C          61.2632   88.8767    9.6616 C.3     1  UNL1        0.0430
      6 C          60.7567   89.9951    8.7998 C.3     1  UNL1        0.0939
      7 N          60.0255   89.3904    7.6380 N.pl3   1  UNL1       -0.2931
      8 C          60.0802   87.8983    7.7817 C.3     1  UNL1        0.0939
      9 C          60.8451   87.5808    9.0323 C.3     1  UNL1        0.0430
     10 C          61.3516   86.4624    9.8941 C.3     1  UNL1        0.0967
     11 N          62.7233   84.8125   12.1768 N.am    1  UNL1       -0.2640
     12 C          62.0694   83.9357   11.1503 C.3     1  UNL1        0.0950
     13 C          62.2864   82.5076   11.5545 C.3     1  UNL1        0.0232
     14 C          63.0743   82.5017   12.8310 C.3     1  UNL1        0.0200
     15 C          62.8043   81.0772   12.4464 C.3     1  UNL1        0.0017
     16 C          63.4254   80.1911   13.4851 C.3     1  UNL1        0.0001
     17 C          64.0792   81.0678   14.5116 C.3     1  UNL1        0.0001
     18 C          63.8623   82.4959   14.1074 C.3     1  UNL1        0.0017
     19 C          63.3443   83.9263   13.2155 C.3     1  UNL1        0.0949
     20 C          59.3571   90.1453    6.5274 C.ar    1  UNL1        0.1317
     21 C          60.1822   90.9310    5.5519 C.ar    1  UNL1        0.0343
     22 C          59.5138   91.6859    4.4413 C.ar    1  UNL1        0.0045
     23 C          58.0202   91.6551    4.3063 C.ar    1  UNL1        0.0208
     24 C          57.1951   90.8693    5.2819 C.ar    1  UNL1        0.1003
     25 N          57.8635   90.1145    6.3924 N.ar    1  UNL1       -0.2292
@<TRIPOS>BOND
     1     1     2    2
     2     2     3   am
     3     3     4    1
     4     5     4    1
     5     5     6    1
     6     6     7    1
     7     7    20    1
     8    20    21   ar
     9    21    22   ar
    10    22    23   ar
    11    23    24   ar
    12    24    25   ar
    13     7     8    1
    14     9     8    1
    15     9    10    1
    16     2    11   am
    17    11    12    1
    18    12    13    1
    19    13    14    1
    20    14    15    1
    21    15    16    1
    22    16    17    1
    23    17    18    1
    24    14    19    1
    25    10     3    1
    26    19    11    1
    27     9     5    1
    28    18    14    1
    29    25    20   ar
@<TRIPOS>MOLECULE
*****
 25 29 0 0 0
SMALL
GASTEIGER

@<TRIPOS>ATOM
      1 O          62.4069   85.2113   16.9413 O.2     1  UNL1       -0.2523
      2 C          62.8962   85.4393   15.5418 C.2     1  UNL1        0.3072
      3 N          63.4025   86.7914   15.1352 N.am    1  UNL1       -0.2639
      4 C          63.4796   88.0048   16.0137 C.3     1  UNL1        0.0967
      5 C          64.0454   89.1308   15.2001 C.3     1  UNL1        0.0430
      6 C          64.4427   90.5766   15.2402 C.3     1  UNL1        0.0939
      7 N          64.9609   90.9527   13.8837 N.pl3   1  UNL1       -0.2931
      8 C          64.8838   89.7394   13.0053 C.3     1  UNL1        0.0939
      9 C          64.3180   88.6133   13.8188 C.3     1  UNL1        0.0430
     10 C          63.9207   87.1675   13.7787 C.3     1  UNL1        0.0967
     11 N          62.8790   84.3150   14.5489 N.am    1  UNL1       -0.2640
     12 C          63.3340   84.3923   13.1217 C.3     1  UNL1        0.0950
     13 C          63.1401   83.0412   12.4996 C.3     1  UNL1        0.0232
     14 C          62.5653   82.1289   13.5424 C.3     1  UNL1        0.0200
     15 C          62.7267   81.3416   12.2759 C.3     1  UNL1        0.0017
     16 C          62.2516   79.9428   12.5359 C.3     1  UNL1        0.0001
     17 C          61.7966   79.8656   13.9632 C.3     1  UNL1        0.0001
     18 C          61.9905   81.2166   14.5852 C.3     1  UNL1        0.0017
     19 C          62.4040   82.9162   14.8090 C.3     1  UNL1        0.0949
     20 C          65.4673   92.3048   13.4771 C.ar    1  UNL1        0.1317
     21 C          66.2285   93.1468   14.4577 C.ar    1  UNL1        0.0343
     22 C          66.7348   94.4989   14.0511 C.ar    1  UNL1        0.0045
     23 C          66.4800   95.0091   12.6637 C.ar    1  UNL1        0.0208
     24 C          65.7188   94.1672   11.6831 C.ar    1  UNL1        0.1003
     25 N          65.2124   92.8151   12.0897 N.ar    1  UNL1       -0.2292
@<TRIPOS>BOND
     1     1     2    2
     2     2     3   am
     3     3     4    1
     4     5     4    1
     5     5     6    1
     6     6     7    1
     7     7    20    1
     8    20    21   ar
     9    21    22   ar
    10    22    23   ar
    11    23    24   ar
    12    24    25   ar
    13     7     8    1
    14     9     8    1
    15     9    10    1
    16     2    11   am
    17    11    12    1
    18    12    13    1
    19    13    14    1
    20    14    15    1
    21    15    16    1
    22    16    17    1
    23    17    18    1
    24    14    19    1
    25    10     3    1
    26    19    11    1
    27     9     5    1
    28    18    14    1
    29    25    20   ar
@<TRIPOS>MOLECULE
*****
 25 29 0 0 0
SMALL
GASTEIGER

@<TRIPOS>ATOM
      1 O          63.1920   90.9477   11.4666 O.2     1  UNL1       -0.2523
      2 C          63.9208   90.1196   12.4830 C.2     1  UNL1        0.3072
      3 N          63.6245   88.6545   12.6086 N.am    1  UNL1       -0.2639
      4 C          62.6311   87.8827   11.7915 C.3     1  UNL1        0.0967
      5 C          62.6622   86.4553   12.2512 C.3     1  UNL1        0.0430
      6 C          62.0675   85.0960   12.0304 C.3     1  UNL1        0.0939
      7 N          62.7126   84.1456   12.9951 N.pl3   1  UNL1       -0.2931
      8 C          63.7059   84.9174   13.8121 C.3     1  UNL1        0.0939
      9 C          63.6748   86.3448   13.3524 C.3     1  UNL1        0.0430
     10 C          64.2695   87.7041   13.5732 C.3     1  UNL1        0.0967
     11 N          64.9458   90.7565   13.3738 N.am    1  UNL1       -0.2640
     12 C          65.7503   90.0598   14.4308 C.3     1  UNL1        0.0950
     13 C          66.6481   91.0747   15.0742 C.3     1  UNL1        0.0232
     14 C          66.3984   92.3987   14.4149 C.3     1  UNL1        0.0200
     15 C          67.4505   92.5953   15.4659 C.3     1  UNL1        0.0017
     16 C          67.8510   94.0408   15.4560 C.3     1  UNL1        0.0001
     17 C          67.0465   94.7376   14.3990 C.3     1  UNL1        0.0001
     18 C          66.1487   93.7227   13.7556 C.3     1  UNL1        0.0017
     19 C          65.3463   92.2020   13.3639 C.3     1  UNL1        0.0949
     20 C          62.4163   82.6805   13.1207 C.ar    1  UNL1        0.1317
     21 C          63.0195   81.7075   12.1516 C.ar    1  UNL1        0.0343
     22 C          62.7233   80.2424   12.2772 C.ar    1  UNL1        0.0045
     23 C          61.8237   79.7503   13.3720 C.ar    1  UNL1        0.0208
     24 C          61.2204   80.7233   14.3411 C.ar    1  UNL1        0.1003
     25 N          61.5167   82.1884   14.2155 N.ar    1  UNL1       -0.2292
@<TRIPOS>BOND
     1     1     2    2
     2     2     3   am
     3     3     4    1
     4     5     4    1
     5     5     6    1
     6     6     7    1
     7     7    20    1
     8    20    21   ar
     9    21    22   ar
    10    22    23   ar
    11    23    24   ar
    12    24    25   ar
    13     7     8    1
    14     9     8    1
    15     9    10    1
    16     2    11   am
    17    11    12    1
    18    12    13    1
    19    13    14    1
    20    14    15    1
    21    15    16    1
    22    16    17    1
    23    17    18    1
    24    14    19    1
    25    10     3    1
    26    19    11    1
    27     9     5    1
    28    18    14    1
    29    25    20   ar
@<TRIPOS>MOLECULE
*****
 25 29 0 0 0
SMALL
GASTEIGER

@<TRIPOS>ATOM
      1 O          62.2817   81.9574   15.4622 O.2     1  UNL1       -0.2523
      2 C          62.7967   82.7909   14.3264 C.2     1  UNL1        0.3072
      3 N          63.1360   84.2349   14.5494 N.am    1  UNL1       -0.2639
      4 C          63.0128   84.9795   15.8456 C.3     1  UNL1        0.0967
      5 C          63.4587   86.3926   15.6126 C.3     1  UNL1        0.0430
      6 C          63.6582   87.7261   16.2697 C.3     1  UNL1        0.0939
      7 N          64.1802   88.6790   15.2355 N.pl3   1  UNL1       -0.2931
      8 C          64.3033   87.9344   13.9393 C.3     1  UNL1        0.0939
      9 C          63.8575   86.5213   14.1723 C.3     1  UNL1        0.0430
     10 C          63.6580   85.1878   13.5152 C.3     1  UNL1        0.0967
     11 N          62.9723   82.1803   12.9676 N.am    1  UNL1       -0.2640
     12 C          63.4745   82.8852   11.7425 C.3     1  UNL1        0.0950
     13 C          63.4892   81.8982   10.6131 C.3     1  UNL1        0.0232
     14 C          62.9960   80.5833   11.1401 C.3     1  UNL1        0.0200
     15 C          63.3154   80.4090    9.6849 C.3     1  UNL1        0.0017
     16 C          63.0197   78.9863    9.3127 C.3     1  UNL1        0.0001
     17 C          62.5174   78.2814   10.5378 C.3     1  UNL1        0.0001
     18 C          62.5028   79.2684   11.6672 C.3     1  UNL1        0.0017
     19 C          62.6765   80.7576   12.5954 C.3     1  UNL1        0.0949
     20 C          64.5195   90.1230   15.4585 C.ar    1  UNL1        0.1317
     21 C          65.6025   90.7726   14.6491 C.ar    1  UNL1        0.0343
     22 C          65.9418   92.2166   14.8721 C.ar    1  UNL1        0.0045
     23 C          65.1981   93.0111   15.9044 C.ar    1  UNL1        0.0208
     24 C          64.1151   92.3615   16.7138 C.ar    1  UNL1        0.1003
     25 N          63.7758   90.9175   16.4908 N.ar    1  UNL1       -0.2292
@<TRIPOS>BOND
     1     1     2    2
     2     2     3   am
     3     3     4    1
     4     5     4    1
     5     5     6    1
     6     6     7    1
     7     7    20    1
     8    20    21   ar
     9    21    22   ar
    10    22    23   ar
    11    23    24   ar
    12    24    25   ar
    13     7     8    1
    14     9     8    1
    15     9    10    1
    16     2    11   am
    17    11    12    1
    18    12    13    1
    19    13    14    1
    20    14    15    1
    21    15    16    1
    22    16    17    1
    23    17    18    1
    24    14    19    1
    25    10     3    1
    26    19    11    1
    27     9     5    1
    28    18    14    1
    29    25    20   ar
