@<TRIPOS>MOLECULE
*****
 44 48 0 0 0
SMALL
GASTEIGER

@<TRIPOS>ATOM
      1 C          60.6514   89.3654   10.8492 C.3     1  UNL1        0.1443
      2 O          59.9366   88.9523   12.1015 O.3     1  UNL1       -0.3813
      3 H          60.2512   89.4892   12.8455 H       1  UNL1        0.2105
      4 C          60.3430   88.6828    9.5496 C.3     1  UNL1        0.1041
      5 C          59.3364   89.0662    7.1854 C.2     1  UNL1        0.2527
      6 O          58.4704   87.8535    7.3574 O.2     1  UNL1       -0.2724
      7 N          60.2727   89.4808    8.2814 N.am    1  UNL1       -0.3012
      8 H          60.8410   90.2767    8.1685 H       1  UNL1        0.1495
      9 C          59.2661   89.8642    5.9172 C.3     1  UNL1        0.2269
     10 C          58.1408   91.8769    4.7202 C.3     1  UNL1        0.1748
     11 O          58.0399   90.6701    5.6052 O.3     1  UNL1       -0.3418
     12 C          60.1049   87.2022    9.5182 C.3     1  UNL1        0.0484
     13 C          61.2476   86.2541    9.7316 C.ar    1  UNL1       -0.0204
     14 C          62.0649   85.7895    8.5628 C.ar    1  UNL1       -0.0042
     15 C          63.2075   84.8414    8.7762 C.ar    1  UNL1       -0.0003
     16 C          63.5329   84.3580   10.1583 C.ar    1  UNL1        0.0020
     17 C          62.7156   84.8227   11.3272 C.ar    1  UNL1        0.0235
     18 C          61.5730   85.7707   11.1138 C.ar    1  UNL1       -0.0022
     19 C          63.0410   84.3392   12.7094 C.ar    1  UNL1        0.1107
     20 N          62.2740   84.6583   13.9583 N.ar    1  UNL1       -0.2368
     21 C          62.9495   83.9681   15.1061 C.ar    1  UNL1        0.1064
     22 C          64.1339   83.2226   14.5665 C.ar    1  UNL1        0.0575
     23 S          64.1904   83.4520   13.0852 S.2     1  UNL1       -0.0659
     24 C          61.6747   90.4612   10.8964 C.3     1  UNL1        0.1001
     25 N          63.0874   90.1515   11.2943 N.3     1  UNL1       -0.2928
     26 H          63.6913   90.5740   10.5892 H       1  UNL1        0.1236
     27 C          63.6049   90.5961   12.6303 C.3     1  UNL1        0.0849
     28 C          63.1282   89.9205   13.8818 C.3     1  UNL1        0.0604
     29 C          63.6457   90.3650   15.2177 C.3     1  UNL1        0.1363
     30 C          62.6914   89.2485   15.5229 C.3     1  UNL1        0.0402
     31 C          62.9715   89.4096   16.9877 C.3     1  UNL1        0.0072
     32 C          63.9258   90.5260   16.6826 C.3     1  UNL1        0.0402
     33 O          64.6399   91.4850   15.3020 O.3     1  UNL1       -0.4676
     34 C          65.1165   92.1605   14.0505 C.ar    1  UNL1        0.2216
     35 N          66.1108   93.2806   14.1349 N.ar    1  UNL1       -0.2107
     36 C          66.5875   93.9561   12.8833 C.ar    1  UNL1        0.0977
     37 C          66.0699   93.5116   11.5474 C.ar    1  UNL1       -0.0031
     38 C          65.0758   92.3916   11.4630 C.ar    1  UNL1       -0.0011
     39 C          64.5991   91.7161   12.7146 C.ar    1  UNL1        0.0449
     40 C          66.5466   94.1872   10.2958 C.3     1  UNL1        0.0279
     41 C          67.5612   93.5137    9.4198 C.3     1  UNL1        0.0041
     42 C          67.6824   92.3997   10.4169 C.3     1  UNL1        0.0003
     43 C          67.4399   94.6279    8.4228 C.3     1  UNL1        0.0003
     44 C          68.5756   92.8403    8.5439 C.3     1  UNL1        0.0003
@<TRIPOS>BOND
     1    10    11    1
     2    11     9    1
     3     9     5    1
     4     5     6    2
     5     5     7   am
     6     7     4    1
     7     4    12    1
     8    12    13    1
     9    13    14   ar
    10    14    15   ar
    11    15    16   ar
    12    16    17   ar
    13    17    19    1
    14    19    20   ar
    15    20    21   ar
    16    21    22   ar
    17    22    23   ar
    18    17    18   ar
    19     4     1    1
    20     1     2    1
    21     1    24    1
    22    24    25    1
    23    27    25    1
    24    27    28    1
    25    28    29    1
    26    29    30    1
    27    30    31    1
    28    31    32    1
    29    29    33    1
    30    33    34    1
    31    34    35   ar
    32    35    36   ar
    33    36    37   ar
    34    37    40    1
    35    40    41    1
    36    41    42    1
    37    41    43    1
    38    41    44    1
    39    37    38   ar
    40    38    39   ar
    41    18    13   ar
    42    39    27    1
    43    23    19   ar
    44    32    29    1
    45    39    34   ar
    46     7     8    1
    47     2     3    1
    48    25    26    1
@<TRIPOS>MOLECULE
*****
 44 48 0 0 0
SMALL
GASTEIGER

@<TRIPOS>ATOM
      1 C          60.7577   89.4587   10.9771 C.3     1  UNL1        0.1443
      2 O          60.1788   89.0289   12.2925 O.3     1  UNL1       -0.3813
      3 H          60.5139   89.6052   12.9970 H       1  UNL1        0.2105
      4 C          60.3938   88.7234    9.7214 C.3     1  UNL1        0.1041
      5 C          59.4181   88.9582    7.3250 C.2     1  UNL1        0.2527
      6 O          58.5981   87.7202    7.5376 O.2     1  UNL1       -0.2724
      7 N          60.3160   89.4597    8.4169 N.am    1  UNL1       -0.3012
      8 H          60.8542   90.2722    8.2774 H       1  UNL1        0.1495
      9 C          59.3403   89.6945    6.0205 C.3     1  UNL1        0.2269
     10 C          58.5940   91.8637    4.8007 C.3     1  UNL1        0.1748
     11 O          58.3611   90.8182    5.8508 O.3     1  UNL1       -0.3418
     12 C          60.1079   87.2518    9.7702 C.3     1  UNL1        0.0484
     13 C          61.2366   86.2659    9.7066 C.ar    1  UNL1       -0.0204
     14 C          61.9671   86.0444    8.4155 C.ar    1  UNL1       -0.0042
     15 C          63.0958   85.0585    8.3519 C.ar    1  UNL1       -0.0003
     16 C          63.4940   84.2941    9.5795 C.ar    1  UNL1        0.0020
     17 C          62.7634   84.5155   10.8708 C.ar    1  UNL1        0.0235
     18 C          61.6347   85.5014   10.9343 C.ar    1  UNL1       -0.0022
     19 C          63.1616   83.7511   12.0984 C.ar    1  UNL1        0.1107
     20 N          63.9451   84.2912   13.2578 N.ar    1  UNL1       -0.2368
     21 C          64.1139   83.1863   14.2581 C.ar    1  UNL1        0.1064
     22 C          63.4347   81.9633   13.7169 C.ar    1  UNL1        0.0575
     23 S          62.8461   82.3124   12.3821 S.2     1  UNL1       -0.0659
     24 C          61.7005   90.6239   10.9176 C.3     1  UNL1        0.1001
     25 N          63.1820   90.3926   10.9564 N.3     1  UNL1       -0.2928
     26 H          63.4923   90.3077    9.9885 H       1  UNL1        0.1236
     27 C          64.0812   91.3982   11.6126 C.3     1  UNL1        0.0849
     28 C          64.7801   92.4338   10.7825 C.3     1  UNL1        0.0604
     29 C          65.6791   93.4393   11.4387 C.3     1  UNL1        0.1363
     30 C          65.7245   93.7734    9.9770 C.3     1  UNL1        0.0402
     31 C          66.6676   94.9039   10.2647 C.3     1  UNL1        0.0072
     32 C          66.6222   94.5698   11.7264 C.3     1  UNL1        0.0402
     33 O          65.8793   93.4092   12.9249 O.3     1  UNL1       -0.4676
     34 C          65.1804   92.3736   13.7550 C.ar    1  UNL1        0.2216
     35 N          65.3806   92.3435   15.2413 N.ar    1  UNL1       -0.2107
     36 C          64.6817   91.3080   16.0715 C.ar    1  UNL1        0.0977
     37 C          63.7826   90.3024   15.4152 C.ar    1  UNL1       -0.0031
     38 C          63.5824   90.3325   13.9290 C.ar    1  UNL1       -0.0011
     39 C          64.2813   91.3681   13.0989 C.ar    1  UNL1        0.0449
     40 C          63.0837   89.2668   16.2453 C.3     1  UNL1        0.0279
     41 C          63.5072   87.8300   16.1646 C.3     1  UNL1        0.0041
     42 C          64.2459   88.1193   14.8916 C.3     1  UNL1        0.0003
     43 C          62.7684   87.5408   17.4377 C.3     1  UNL1        0.0003
     44 C          63.9306   86.3933   16.0839 C.3     1  UNL1        0.0003
@<TRIPOS>BOND
     1    10    11    1
     2    11     9    1
     3     9     5    1
     4     5     6    2
     5     5     7   am
     6     7     4    1
     7     4    12    1
     8    12    13    1
     9    13    14   ar
    10    14    15   ar
    11    15    16   ar
    12    16    17   ar
    13    17    19    1
    14    19    20   ar
    15    20    21   ar
    16    21    22   ar
    17    22    23   ar
    18    17    18   ar
    19     4     1    1
    20     1     2    1
    21     1    24    1
    22    24    25    1
    23    27    25    1
    24    27    28    1
    25    28    29    1
    26    29    30    1
    27    30    31    1
    28    31    32    1
    29    29    33    1
    30    33    34    1
    31    34    35   ar
    32    35    36   ar
    33    36    37   ar
    34    37    40    1
    35    40    41    1
    36    41    42    1
    37    41    43    1
    38    41    44    1
    39    37    38   ar
    40    38    39   ar
    41    18    13   ar
    42    39    27    1
    43    23    19   ar
    44    32    29    1
    45    39    34   ar
    46     7     8    1
    47     2     3    1
    48    25    26    1
@<TRIPOS>MOLECULE
*****
 44 48 0 0 0
SMALL
GASTEIGER

@<TRIPOS>ATOM
      1 C          60.6022   89.6609   11.7430 C.3     1  UNL1        0.1443
      2 O          59.5775   90.7560   11.7676 O.3     1  UNL1       -0.3813
      3 H          58.7676   90.4509   11.3296 H       1  UNL1        0.2105
      4 C          61.9512   89.8820   12.3605 C.3     1  UNL1        0.1041
      5 C          63.0899   89.2928   14.6201 C.2     1  UNL1        0.2527
      6 O          63.9816   88.3137   13.9155 O.2     1  UNL1       -0.2724
      7 N          62.0748   90.0769   13.8426 N.am    1  UNL1       -0.3012
      8 H          61.4896   90.7195   14.3051 H       1  UNL1        0.1495
      9 C          63.2135   89.4876   16.1023 C.3     1  UNL1        0.2269
     10 C          64.2732   91.8369   16.4314 C.3     1  UNL1        0.1748
     11 O          63.1557   90.8689   16.6845 O.3     1  UNL1       -0.3418
     12 C          63.1766   89.9083   11.4958 C.3     1  UNL1        0.0484
     13 C          64.1075   91.0832   11.5497 C.ar    1  UNL1       -0.0204
     14 C          64.1537   92.0564   10.4092 C.ar    1  UNL1       -0.0042
     15 C          65.0846   93.2313   10.4630 C.ar    1  UNL1       -0.0003
     16 C          65.9693   93.4331   11.6574 C.ar    1  UNL1        0.0020
     17 C          65.9231   92.4600   12.7980 C.ar    1  UNL1        0.0235
     18 C          64.9922   91.2850   12.7441 C.ar    1  UNL1       -0.0022
     19 C          66.8078   92.6618   13.9924 C.ar    1  UNL1        0.1107
     20 N          67.1191   93.9749   14.6471 N.ar    1  UNL1       -0.2368
     21 C          68.0402   93.7106   15.8011 C.ar    1  UNL1        0.1064
     22 C          68.2981   92.2342   15.8595 C.ar    1  UNL1        0.0575
     23 S          67.5364   91.5860   14.7417 S.2     1  UNL1       -0.0659
     24 C          60.2779   88.3446   11.1009 C.3     1  UNL1        0.1001
     25 N          60.8918   87.0816   11.6280 N.3     1  UNL1       -0.2928
     26 H          60.1408   86.5515   12.0702 H       1  UNL1        0.1236
     27 C          61.5929   86.1413   10.6929 C.3     1  UNL1        0.0849
     28 C          61.2495   86.1409    9.2327 C.3     1  UNL1        0.0604
     29 C          61.9506   85.2008    8.2976 C.3     1  UNL1        0.1363
     30 C          60.9951   85.9680    7.4325 C.3     1  UNL1        0.0402
     31 C          61.4649   85.2002    6.2325 C.3     1  UNL1        0.0072
     32 C          62.4205   84.4330    7.0976 C.3     1  UNL1        0.0402
     33 O          62.9952   84.2610    8.8226 O.3     1  UNL1       -0.4676
     34 C          63.3386   84.2614   10.2828 C.ar    1  UNL1        0.2216
     35 N          64.3832   83.3216   10.8078 N.ar    1  UNL1       -0.2107
     36 C          64.7267   83.3220   12.2680 C.ar    1  UNL1        0.0977
     37 C          64.0255   84.2622   13.2031 C.ar    1  UNL1       -0.0031
     38 C          62.9809   85.2020   12.6781 C.ar    1  UNL1       -0.0011
     39 C          62.6375   85.2016   11.2179 C.ar    1  UNL1        0.0449
     40 C          64.3689   84.2626   14.6633 C.3     1  UNL1        0.0279
     41 C          63.3714   84.7578   15.6682 C.3     1  UNL1        0.0041
     42 C          62.4992   83.5702   15.3876 C.3     1  UNL1        0.0003
     43 C          64.2437   85.9454   15.9488 C.3     1  UNL1        0.0003
     44 C          62.3739   85.2530   16.6731 C.3     1  UNL1        0.0003
@<TRIPOS>BOND
     1    10    11    1
     2    11     9    1
     3     9     5    1
     4     5     6    2
     5     5     7   am
     6     7     4    1
     7     4    12    1
     8    12    13    1
     9    13    14   ar
    10    14    15   ar
    11    15    16   ar
    12    16    17   ar
    13    17    19    1
    14    19    20   ar
    15    20    21   ar
    16    21    22   ar
    17    22    23   ar
    18    17    18   ar
    19     4     1    1
    20     1     2    1
    21     1    24    1
    22    24    25    1
    23    27    25    1
    24    27    28    1
    25    28    29    1
    26    29    30    1
    27    30    31    1
    28    31    32    1
    29    29    33    1
    30    33    34    1
    31    34    35   ar
    32    35    36   ar
    33    36    37   ar
    34    37    40    1
    35    40    41    1
    36    41    42    1
    37    41    43    1
    38    41    44    1
    39    37    38   ar
    40    38    39   ar
    41    18    13   ar
    42    39    27    1
    43    23    19   ar
    44    32    29    1
    45    39    34   ar
    46     7     8    1
    47     2     3    1
    48    25    26    1
@<TRIPOS>MOLECULE
*****
 44 48 0 0 0
SMALL
GASTEIGER

@<TRIPOS>ATOM
      1 C          60.0065   89.1050   10.7244 C.3     1  UNL1        0.1443
      2 O          59.3883   90.1644   11.5877 O.3     1  UNL1       -0.3813
      3 H          58.8249   89.7472   12.2581 H       1  UNL1        0.2105
      4 C          60.9266   89.4923    9.6049 C.3     1  UNL1        0.1041
      5 C          59.4899   89.2662    7.4520 C.2     1  UNL1        0.2527
      6 O          59.1706   87.8460    7.8143 O.2     1  UNL1       -0.2724
      7 N          60.3679   90.0893    8.3473 N.am    1  UNL1       -0.3012
      8 H          60.5774   91.0214    8.1095 H       1  UNL1        0.1495
      9 C          58.9311   89.8632    6.1945 C.3     1  UNL1        0.2269
     10 C          59.2625   91.9822    4.7282 C.3     1  UNL1        0.1748
     11 O          59.8018   90.7119    5.3160 O.3     1  UNL1       -0.3418
     12 C          62.4054   89.2827    9.7429 C.3     1  UNL1        0.0484
     13 C          63.1283   89.8084   10.9475 C.ar    1  UNL1       -0.0204
     14 C          63.1151   89.0295   12.2293 C.ar    1  UNL1       -0.0042
     15 C          63.8379   89.5552   13.4339 C.ar    1  UNL1       -0.0003
     16 C          64.5740   90.8599   13.3567 C.ar    1  UNL1        0.0020
     17 C          64.5872   91.6389   12.0748 C.ar    1  UNL1        0.0235
     18 C          63.8643   91.1132   10.8702 C.ar    1  UNL1       -0.0022
     19 C          65.3232   92.9436   11.9976 C.ar    1  UNL1        0.1107
     20 N          65.8365   93.7366   13.1628 N.ar    1  UNL1       -0.2368
     21 C          66.5057   94.9675   12.6270 C.ar    1  UNL1        0.1064
     22 C          66.4060   94.9352   11.1307 C.ar    1  UNL1        0.0575
     23 S          65.6751   93.6844   10.7418 S.2     1  UNL1       -0.0659
     24 C          59.7046   87.6581   10.9806 C.3     1  UNL1        0.1001
     25 N          60.7507   86.7693   11.5853 N.3     1  UNL1       -0.2928
     26 H          60.2705   86.1541   12.2420 H       1  UNL1        0.1236
     27 C          61.5899   85.8919   10.7044 C.3     1  UNL1        0.0849
     28 C          61.3576   85.8753    9.2225 C.3     1  UNL1        0.0604
     29 C          62.1967   84.9979    8.3416 C.3     1  UNL1        0.1363
     30 C          61.2524   85.6958    7.4081 C.3     1  UNL1        0.0402
     31 C          61.8682   84.9744    6.2460 C.3     1  UNL1        0.0072
     32 C          62.8125   84.2766    7.1795 C.3     1  UNL1        0.0402
     33 O          63.2681   84.1372    8.9425 O.3     1  UNL1       -0.4676
     34 C          63.5004   84.1538   10.4244 C.ar    1  UNL1        0.2216
     35 N          64.5719   83.2929   11.0253 N.ar    1  UNL1       -0.2107
     36 C          64.8041   83.3096   12.5071 C.ar    1  UNL1        0.0977
     37 C          63.9649   84.1870   13.3880 C.ar    1  UNL1       -0.0031
     38 C          62.8935   85.0478   12.7871 C.ar    1  UNL1       -0.0011
     39 C          62.6613   85.0311   11.3053 C.ar    1  UNL1        0.0449
     40 C          64.1972   84.2036   14.8698 C.3     1  UNL1        0.0279
     41 C          63.7860   85.3971   15.6801 C.3     1  UNL1        0.0041
     42 C          64.9716   86.1566   15.1630 C.3     1  UNL1        0.0003
     43 C          62.6003   84.6375   16.1972 C.3     1  UNL1        0.0003
     44 C          63.3748   86.5906   16.4903 C.3     1  UNL1        0.0003
@<TRIPOS>BOND
     1    10    11    1
     2    11     9    1
     3     9     5    1
     4     5     6    2
     5     5     7   am
     6     7     4    1
     7     4    12    1
     8    12    13    1
     9    13    14   ar
    10    14    15   ar
    11    15    16   ar
    12    16    17   ar
    13    17    19    1
    14    19    20   ar
    15    20    21   ar
    16    21    22   ar
    17    22    23   ar
    18    17    18   ar
    19     4     1    1
    20     1     2    1
    21     1    24    1
    22    24    25    1
    23    27    25    1
    24    27    28    1
    25    28    29    1
    26    29    30    1
    27    30    31    1
    28    31    32    1
    29    29    33    1
    30    33    34    1
    31    34    35   ar
    32    35    36   ar
    33    36    37   ar
    34    37    40    1
    35    40    41    1
    36    41    42    1
    37    41    43    1
    38    41    44    1
    39    37    38   ar
    40    38    39   ar
    41    18    13   ar
    42    39    27    1
    43    23    19   ar
    44    32    29    1
    45    39    34   ar
    46     7     8    1
    47     2     3    1
    48    25    26    1
@<TRIPOS>MOLECULE
*****
 44 48 0 0 0
SMALL
GASTEIGER

@<TRIPOS>ATOM
      1 C          60.7698   89.7412   11.6059 C.3     1  UNL1        0.1443
      2 O          59.6235   90.7086   11.6194 O.3     1  UNL1       -0.3813
      3 H          58.8388   90.2856   11.2371 H       1  UNL1        0.2105
      4 C          62.1065   90.1546   12.1464 C.3     1  UNL1        0.1041
      5 C          63.1900   89.1915   14.3024 C.2     1  UNL1        0.2527
      6 O          63.8282   88.1007   13.4944 O.2     1  UNL1       -0.2724
      7 N          62.3292   90.2185   13.6284 N.am    1  UNL1       -0.3012
      8 H          61.9103   90.9344   14.1587 H       1  UNL1        0.1495
      9 C          63.4127   89.2554   15.7844 C.3     1  UNL1        0.2269
     10 C          64.1501   91.6273   16.5464 C.3     1  UNL1        0.1748
     11 O          63.1320   90.5258   16.5310 O.3     1  UNL1       -0.3418
     12 C          63.2206   90.5042   11.2048 C.3     1  UNL1        0.0484
     13 C          64.2606   91.5054   11.6123 C.ar    1  UNL1       -0.0204
     14 C          64.8667   91.4417   12.9828 C.ar    1  UNL1       -0.0042
     15 C          65.9067   92.4429   13.3903 C.ar    1  UNL1       -0.0003
     16 C          66.3406   93.5078   12.4271 C.ar    1  UNL1        0.0020
     17 C          65.7344   93.5715   11.0565 C.ar    1  UNL1        0.0235
     18 C          64.6945   92.5703   10.6490 C.ar    1  UNL1       -0.0022
     19 C          66.1683   94.6365   10.0933 C.ar    1  UNL1        0.1107
     20 N          67.1441   94.4625    8.9675 N.ar    1  UNL1       -0.2368
     21 C          67.2814   95.7808    8.2653 C.ar    1  UNL1        0.1064
     22 C          66.3905   96.7695    8.9571 C.ar    1  UNL1        0.0575
     23 S          65.7026   96.0622   10.0869 S.2     1  UNL1       -0.0659
     24 C          60.5792   88.3603   11.0519 C.3     1  UNL1        0.1001
     25 N          61.3698   87.2134   11.6081 N.3     1  UNL1       -0.2928
     26 H          60.7569   86.7210   12.2580 H       1  UNL1        0.1236
     27 C          61.9421   86.1791   10.6846 C.3     1  UNL1        0.0849
     28 C          61.5863   86.1956    9.2275 C.3     1  UNL1        0.0604
     29 C          62.1585   85.1614    8.3040 C.3     1  UNL1        0.1363
     30 C          61.2944   86.0243    7.4328 C.3     1  UNL1        0.0402
     31 C          61.6553   85.1847    6.2432 C.3     1  UNL1        0.0072
     32 C          62.5194   84.3218    7.1144 C.3     1  UNL1        0.0402
     33 O          63.0865   84.1107    8.8375 O.3     1  UNL1       -0.4676
     34 C          63.4423   84.0942   10.2946 C.ar    1  UNL1        0.2216
     35 N          64.3704   83.0434   10.8282 N.ar    1  UNL1       -0.2107
     36 C          64.7262   83.0269   12.2853 C.ar    1  UNL1        0.0977
     37 C          64.1539   84.0611   13.2088 C.ar    1  UNL1       -0.0031
     38 C          63.2259   85.1119   12.6752 C.ar    1  UNL1       -0.0011
     39 C          62.8701   85.1284   11.2181 C.ar    1  UNL1        0.0449
     40 C          64.5097   84.0446   14.6659 C.3     1  UNL1        0.0279
     41 C          63.6845   84.8218   15.6483 C.3     1  UNL1        0.0041
     42 C          62.6401   83.7455   15.6223 C.3     1  UNL1        0.0003
     43 C          64.7290   85.8982   15.6742 C.3     1  UNL1        0.0003
     44 C          62.8592   85.5989   16.6307 C.3     1  UNL1        0.0003
@<TRIPOS>BOND
     1    10    11    1
     2    11     9    1
     3     9     5    1
     4     5     6    2
     5     5     7   am
     6     7     4    1
     7     4    12    1
     8    12    13    1
     9    13    14   ar
    10    14    15   ar
    11    15    16   ar
    12    16    17   ar
    13    17    19    1
    14    19    20   ar
    15    20    21   ar
    16    21    22   ar
    17    22    23   ar
    18    17    18   ar
    19     4     1    1
    20     1     2    1
    21     1    24    1
    22    24    25    1
    23    27    25    1
    24    27    28    1
    25    28    29    1
    26    29    30    1
    27    30    31    1
    28    31    32    1
    29    29    33    1
    30    33    34    1
    31    34    35   ar
    32    35    36   ar
    33    36    37   ar
    34    37    40    1
    35    40    41    1
    36    41    42    1
    37    41    43    1
    38    41    44    1
    39    37    38   ar
    40    38    39   ar
    41    18    13   ar
    42    39    27    1
    43    23    19   ar
    44    32    29    1
    45    39    34   ar
    46     7     8    1
    47     2     3    1
    48    25    26    1
@<TRIPOS>MOLECULE
*****
 44 48 0 0 0
SMALL
GASTEIGER

@<TRIPOS>ATOM
      1 C          60.5188   88.8234   11.5074 C.3     1  UNL1        0.1443
      2 O          59.3661   88.5611   12.4307 O.3     1  UNL1       -0.3813
      3 H          59.0311   89.4030   12.7770 H       1  UNL1        0.2105
      4 C          61.2180   87.6784   10.8366 C.3     1  UNL1        0.1041
      5 C          59.9983   87.3399    8.5677 C.2     1  UNL1        0.2527
      6 O          60.2799   88.7674    8.2033 O.2     1  UNL1       -0.2724
      7 N          60.4673   86.7954    9.8843 N.am    1  UNL1       -0.3012
      8 H          60.2825   85.8584   10.1235 H       1  UNL1        0.1495
      9 C          59.2476   86.4568    7.6155 C.3     1  UNL1        0.2269
     10 C          61.4248   85.1696    7.0213 C.3     1  UNL1        0.1748
     11 O          59.9286   85.2730    6.9950 O.3     1  UNL1       -0.3418
     12 C          62.6678   87.4165   11.1180 C.3     1  UNL1        0.0484
     13 C          63.0606   86.4996   12.2383 C.ar    1  UNL1       -0.0204
     14 C          63.7851   87.0437   13.4337 C.ar    1  UNL1       -0.0042
     15 C          64.1779   86.1269   14.5541 C.ar    1  UNL1       -0.0003
     16 C          63.8463   84.6660   14.4790 C.ar    1  UNL1        0.0020
     17 C          63.1218   84.1218   13.2835 C.ar    1  UNL1        0.0235
     18 C          62.7290   85.0386   12.1632 C.ar    1  UNL1       -0.0022
     19 C          62.7902   82.6609   13.2084 C.ar    1  UNL1        0.1107
     20 N          63.2236   81.7127   12.1300 N.ar    1  UNL1       -0.2368
     21 C          62.6682   80.3574   12.4536 C.ar    1  UNL1        0.1064
     22 C          61.8915   80.4681   13.7320 C.ar    1  UNL1        0.0575
     23 S          61.9669   81.8917   14.1985 S.2     1  UNL1       -0.0659
     24 C          60.9722   90.2308   11.2549 C.3     1  UNL1        0.1001
     25 N          62.4357   90.5372   11.1350 N.3     1  UNL1       -0.2928
     26 H          62.5189   91.3346   10.5044 H       1  UNL1        0.1236
     27 C          63.2354   90.8686   12.3601 C.3     1  UNL1        0.0849
     28 C          62.8748   90.2540   13.6800 C.3     1  UNL1        0.0604
     29 C          63.6744   90.5854   14.9051 C.3     1  UNL1        0.1363
     30 C          62.6193   89.6293   15.3771 C.3     1  UNL1        0.0402
     31 C          63.1645   89.7162   16.7718 C.3     1  UNL1        0.0072
     32 C          64.2196   90.6723   16.2998 C.3     1  UNL1        0.0402
     33 O          64.8346   91.5313   14.8101 O.3     1  UNL1       -0.4676
     34 C          65.1952   92.1459   13.4902 C.ar    1  UNL1        0.2216
     35 N          66.3555   93.0919   13.3953 N.ar    1  UNL1       -0.2107
     36 C          66.7161   93.7065   12.0753 C.ar    1  UNL1        0.0977
     37 C          65.9164   93.3750   10.8503 C.ar    1  UNL1       -0.0031
     38 C          64.7562   92.4291   10.9452 C.ar    1  UNL1       -0.0011
     39 C          64.3956   91.8145   12.2652 C.ar    1  UNL1        0.0449
     40 C          66.2769   93.9896    9.5303 C.3     1  UNL1        0.0279
     41 C          66.7293   95.4184    9.4668 C.3     1  UNL1        0.0041
     42 C          65.4713   95.8476   10.1619 C.3     1  UNL1        0.0003
     43 C          67.9874   94.9892    8.7717 C.3     1  UNL1        0.0003
     44 C          67.1816   96.8472    9.4034 C.3     1  UNL1        0.0003
@<TRIPOS>BOND
     1    10    11    1
     2    11     9    1
     3     9     5    1
     4     5     6    2
     5     5     7   am
     6     7     4    1
     7     4    12    1
     8    12    13    1
     9    13    14   ar
    10    14    15   ar
    11    15    16   ar
    12    16    17   ar
    13    17    19    1
    14    19    20   ar
    15    20    21   ar
    16    21    22   ar
    17    22    23   ar
    18    17    18   ar
    19     4     1    1
    20     1     2    1
    21     1    24    1
    22    24    25    1
    23    27    25    1
    24    27    28    1
    25    28    29    1
    26    29    30    1
    27    30    31    1
    28    31    32    1
    29    29    33    1
    30    33    34    1
    31    34    35   ar
    32    35    36   ar
    33    36    37   ar
    34    37    40    1
    35    40    41    1
    36    41    42    1
    37    41    43    1
    38    41    44    1
    39    37    38   ar
    40    38    39   ar
    41    18    13   ar
    42    39    27    1
    43    23    19   ar
    44    32    29    1
    45    39    34   ar
    46     7     8    1
    47     2     3    1
    48    25    26    1
@<TRIPOS>MOLECULE
*****
 44 48 0 0 0
SMALL
GASTEIGER

@<TRIPOS>ATOM
      1 C          60.5990   90.1493   12.0249 C.3     1  UNL1        0.1443
      2 O          59.8879   91.2418   11.2829 O.3     1  UNL1       -0.3813
      3 H          58.9607   90.9907   11.1481 H       1  UNL1        0.2105
      4 C          62.0538   90.2942   12.3603 C.3     1  UNL1        0.1041
      5 C          63.2211   89.0766   14.3363 C.2     1  UNL1        0.2527
      6 O          63.4980   87.9001   13.4478 O.2     1  UNL1       -0.2724
      7 N          62.4990   90.2736   13.7925 N.am    1  UNL1       -0.3012
      8 H          62.3172   91.0457   14.3757 H       1  UNL1        0.1495
      9 C          63.6663   89.0559   15.7685 C.3     1  UNL1        0.2269
     10 C          63.0031   86.8870   17.0358 C.3     1  UNL1        0.1748
     11 O          62.8330   88.3590   16.8030 O.3     1  UNL1       -0.3418
     12 C          63.0634   90.4599   11.2634 C.3     1  UNL1        0.0484
     13 C          64.1595   91.4747   11.3998 C.ar    1  UNL1       -0.0204
     14 C          64.4347   92.4363   10.2820 C.ar    1  UNL1       -0.0042
     15 C          65.5308   93.4511   10.4184 C.ar    1  UNL1       -0.0003
     16 C          66.3516   93.5045   11.6728 C.ar    1  UNL1        0.0020
     17 C          66.0764   92.5430   12.7907 C.ar    1  UNL1        0.0235
     18 C          64.9803   91.5281   12.6543 C.ar    1  UNL1       -0.0022
     19 C          66.8972   92.5963   14.0451 C.ar    1  UNL1        0.1107
     20 N          68.3922   92.6949   14.1169 N.ar    1  UNL1       -0.2368
     21 C          68.7861   92.7200   15.5640 C.ar    1  UNL1        0.1064
     22 C          67.5345   92.6369   16.3865 C.ar    1  UNL1        0.0575
     23 S          66.3671   92.5605   15.4477 S.2     1  UNL1       -0.0659
     24 C          59.8553   88.9117   12.4316 C.3     1  UNL1        0.1001
     25 N          60.3751   87.5608   12.0379 N.3     1  UNL1       -0.2928
     26 H          59.7036   86.8749   12.3828 H       1  UNL1        0.1236
     27 C          60.6159   87.2420   10.5920 C.3     1  UNL1        0.0849
     28 C          59.8942   88.0098    9.5245 C.3     1  UNL1        0.0604
     29 C          60.1349   87.6910    8.0787 C.3     1  UNL1        0.1363
     30 C          59.1335   88.8077    8.0685 C.3     1  UNL1        0.0402
     31 C          59.1143   88.7769    6.5689 C.3     1  UNL1        0.0072
     32 C          60.1158   87.6601    6.5791 C.3     1  UNL1        0.0402
     33 O          61.0973   86.6044    7.7004 O.3     1  UNL1       -0.4676
     34 C          61.8190   85.8366    8.7680 C.ar    1  UNL1        0.2216
     35 N          62.7814   84.7500    8.3897 N.ar    1  UNL1       -0.2107
     36 C          63.5031   83.9822    9.4573 C.ar    1  UNL1        0.0977
     37 C          63.2623   84.3010   10.9031 C.ar    1  UNL1       -0.0031
     38 C          62.2999   85.3876   11.2814 C.ar    1  UNL1       -0.0011
     39 C          61.5783   86.1554   10.2138 C.ar    1  UNL1        0.0449
     40 C          63.9840   83.5332   11.9707 C.3     1  UNL1        0.0279
     41 C          63.2226   82.9696   13.1338 C.3     1  UNL1        0.0041
     42 C          62.5884   81.9564   12.2277 C.3     1  UNL1        0.0003
     43 C          63.8569   83.9829   14.0400 C.3     1  UNL1        0.0003
     44 C          62.4613   82.4061   14.2969 C.3     1  UNL1        0.0003
@<TRIPOS>BOND
     1    10    11    1
     2    11     9    1
     3     9     5    1
     4     5     6    2
     5     5     7   am
     6     7     4    1
     7     4    12    1
     8    12    13    1
     9    13    14   ar
    10    14    15   ar
    11    15    16   ar
    12    16    17   ar
    13    17    19    1
    14    19    20   ar
    15    20    21   ar
    16    21    22   ar
    17    22    23   ar
    18    17    18   ar
    19     4     1    1
    20     1     2    1
    21     1    24    1
    22    24    25    1
    23    27    25    1
    24    27    28    1
    25    28    29    1
    26    29    30    1
    27    30    31    1
    28    31    32    1
    29    29    33    1
    30    33    34    1
    31    34    35   ar
    32    35    36   ar
    33    36    37   ar
    34    37    40    1
    35    40    41    1
    36    41    42    1
    37    41    43    1
    38    41    44    1
    39    37    38   ar
    40    38    39   ar
    41    18    13   ar
    42    39    27    1
    43    23    19   ar
    44    32    29    1
    45    39    34   ar
    46     7     8    1
    47     2     3    1
    48    25    26    1
@<TRIPOS>MOLECULE
*****
 44 48 0 0 0
SMALL
GASTEIGER

@<TRIPOS>ATOM
      1 C          61.2406   90.1819   12.1321 C.3     1  UNL1        0.1443
      2 O          61.0268   91.1300   10.9896 O.3     1  UNL1       -0.3813
      3 H          60.1437   90.9895   10.6137 H       1  UNL1        0.2105
      4 C          62.5364   90.1977   12.8874 C.3     1  UNL1        0.1041
      5 C          63.2930   88.9577   15.0414 C.2     1  UNL1        0.2527
      6 O          64.0527   87.9701   14.2061 O.2     1  UNL1       -0.2724
      7 N          62.5349   90.0714   14.3821 N.am    1  UNL1       -0.3012
      8 H          62.0364   90.7196   14.9303 H       1  UNL1        0.1495
      9 C          63.2915   88.8314   16.5361 C.3     1  UNL1        0.2269
     10 C          62.9455   86.3356   17.1700 C.3     1  UNL1        0.1748
     11 O          62.4760   87.7600   17.1974 O.3     1  UNL1       -0.3418
     12 C          63.8338   90.3399   12.1480 C.3     1  UNL1        0.0484
     13 C          64.7316   91.5088   12.4267 C.ar    1  UNL1       -0.0204
     14 C          65.3308   91.6860   13.7903 C.ar    1  UNL1       -0.0042
     15 C          66.2286   92.8548   14.0689 C.ar    1  UNL1       -0.0003
     16 C          66.5273   93.8465   12.9839 C.ar    1  UNL1        0.0020
     17 C          65.9281   93.6693   11.6201 C.ar    1  UNL1        0.0235
     18 C          65.0303   92.5005   11.3415 C.ar    1  UNL1       -0.0022
     19 C          66.2268   94.6610   10.5351 C.ar    1  UNL1        0.1107
     20 N          65.4745   95.9314   10.2702 N.ar    1  UNL1       -0.2368
     21 C          66.1129   96.6119    9.0959 C.ar    1  UNL1        0.1064
     22 C          67.2599   95.7622    8.6350 C.ar    1  UNL1        0.0575
     23 S          67.3302   94.5565    9.5245 S.2     1  UNL1       -0.0659
     24 C          60.1586   89.2178   12.5192 C.3     1  UNL1        0.1001
     25 N          60.2514   87.7796   12.1032 N.3     1  UNL1       -0.2928
     26 H          59.3633   87.3435   12.3510 H       1  UNL1        0.1236
     27 C          60.5208   87.4294   10.6697 C.3     1  UNL1        0.0849
     28 C          59.8350   88.1863    9.5711 C.3     1  UNL1        0.0604
     29 C          60.1043   87.8361    8.1377 C.3     1  UNL1        0.1363
     30 C          59.1195   88.9663    8.0828 C.3     1  UNL1        0.0402
     31 C          59.1344   88.9066    6.5840 C.3     1  UNL1        0.0072
     32 C          60.1192   87.7764    6.6389 C.3     1  UNL1        0.0402
     33 O          61.0593   86.7290    7.8028 O.3     1  UNL1       -0.4676
     34 C          61.7451   85.9721    8.9013 C.ar    1  UNL1        0.2216
     35 N          62.7002   84.8650    8.5664 N.ar    1  UNL1       -0.2107
     36 C          63.3859   84.1081    9.6649 C.ar    1  UNL1        0.0977
     37 C          63.1166   84.4583   11.0985 C.ar    1  UNL1       -0.0031
     38 C          62.1616   85.5654   11.4333 C.ar    1  UNL1       -0.0011
     39 C          61.4758   86.3223   10.3348 C.ar    1  UNL1        0.0449
     40 C          63.8024   83.7014   12.1970 C.3     1  UNL1        0.0279
     41 C          62.9899   82.9993   13.2445 C.3     1  UNL1        0.0041
     42 C          62.5460   81.9924   12.2252 C.3     1  UNL1        0.0003
     43 C          63.4339   84.0063   14.2638 C.3     1  UNL1        0.0003
     44 C          62.1776   82.2972   14.2919 C.3     1  UNL1        0.0003
@<TRIPOS>BOND
     1    10    11    1
     2    11     9    1
     3     9     5    1
     4     5     6    2
     5     5     7   am
     6     7     4    1
     7     4    12    1
     8    12    13    1
     9    13    14   ar
    10    14    15   ar
    11    15    16   ar
    12    16    17   ar
    13    17    19    1
    14    19    20   ar
    15    20    21   ar
    16    21    22   ar
    17    22    23   ar
    18    17    18   ar
    19     4     1    1
    20     1     2    1
    21     1    24    1
    22    24    25    1
    23    27    25    1
    24    27    28    1
    25    28    29    1
    26    29    30    1
    27    30    31    1
    28    31    32    1
    29    29    33    1
    30    33    34    1
    31    34    35   ar
    32    35    36   ar
    33    36    37   ar
    34    37    40    1
    35    40    41    1
    36    41    42    1
    37    41    43    1
    38    41    44    1
    39    37    38   ar
    40    38    39   ar
    41    18    13   ar
    42    39    27    1
    43    23    19   ar
    44    32    29    1
    45    39    34   ar
    46     7     8    1
    47     2     3    1
    48    25    26    1
@<TRIPOS>MOLECULE
*****
 44 48 0 0 0
SMALL
GASTEIGER

@<TRIPOS>ATOM
      1 C          64.1240   85.7084   14.9555 C.3     1  UNL1        0.1443
      2 O          64.3558   85.2084   16.3506 O.3     1  UNL1       -0.3813
      3 H          64.7909   85.8997   16.8737 H       1  UNL1        0.2105
      4 C          63.4610   84.8235   13.9420 C.3     1  UNL1        0.1041
      5 C          63.0740   82.2571   14.0591 C.2     1  UNL1        0.2527
      6 O          61.6947   82.4898   14.6011 O.2     1  UNL1       -0.2724
      7 N          63.9571   83.4239   13.7296 N.am    1  UNL1       -0.3012
      8 H          64.8623   83.2711   13.3739 H       1  UNL1        0.1495
      9 C          63.5700   80.8575   13.8467 C.3     1  UNL1        0.2269
     10 C          62.8272   80.7228   11.3607 C.3     1  UNL1        0.1748
     11 O          63.0735   80.0547   12.6809 O.3     1  UNL1       -0.3418
     12 C          62.3020   85.3381   13.1410 C.3     1  UNL1        0.0484
     13 C          62.3641   85.3312   11.6423 C.ar    1  UNL1       -0.0204
     14 C          63.3522   84.4505   10.9366 C.ar    1  UNL1       -0.0042
     15 C          63.4143   84.4436    9.4379 C.ar    1  UNL1       -0.0003
     16 C          62.4883   85.3174    8.6449 C.ar    1  UNL1        0.0020
     17 C          61.5001   86.1982    9.3505 C.ar    1  UNL1        0.0235
     18 C          61.4380   86.2051   10.8492 C.ar    1  UNL1       -0.0022
     19 C          60.5742   87.0720    8.5575 C.ar    1  UNL1        0.1107
     20 N          60.7147   88.5518    8.3563 N.ar    1  UNL1       -0.2368
     21 C          59.5725   89.0138    7.5009 C.ar    1  UNL1        0.1064
     22 C          58.7260   87.8196    7.1734 C.ar    1  UNL1        0.0575
     23 S          59.3451   86.6195    7.8264 S.2     1  UNL1       -0.0659
     24 C          64.5553   87.0936   14.5739 C.3     1  UNL1        0.1001
     25 N          63.6648   88.2642   14.8683 N.3     1  UNL1       -0.2928
     26 H          64.0739   88.7522   15.6651 H       1  UNL1        0.1236
     27 C          63.4107   89.2977   13.8113 C.3     1  UNL1        0.0849
     28 C          62.1500   89.2466   13.0001 C.3     1  UNL1        0.0604
     29 C          61.8959   90.2801   11.9431 C.3     1  UNL1        0.1363
     30 C          60.6972   89.3792   11.9013 C.3     1  UNL1        0.0402
     31 C          60.1130   90.2078   10.7958 C.3     1  UNL1        0.0072
     32 C          61.3116   91.1088   10.8376 C.3     1  UNL1        0.0402
     33 O          62.9024   91.3648   11.6974 O.3     1  UNL1       -0.4676
     34 C          64.1631   91.4159   12.5086 C.ar    1  UNL1        0.2216
     35 N          65.1696   92.5006   12.2628 N.ar    1  UNL1       -0.2107
     36 C          66.4303   92.5517   13.0741 C.ar    1  UNL1        0.0977
     37 C          66.6844   91.5181   14.1311 C.ar    1  UNL1       -0.0031
     38 C          65.6779   90.4335   14.3768 C.ar    1  UNL1       -0.0011
     39 C          64.4172   90.3824   13.5656 C.ar    1  UNL1        0.0449
     40 C          67.9451   91.5693   14.9423 C.3     1  UNL1        0.0279
     41 C          68.4078   92.8704   15.5281 C.3     1  UNL1        0.0041
     42 C          69.6549   92.8007   14.6976 C.3     1  UNL1        0.0003
     43 C          67.1606   92.9400   16.3586 C.3     1  UNL1        0.0003
     44 C          68.8705   94.1715   16.1137 C.3     1  UNL1        0.0003
@<TRIPOS>BOND
     1    10    11    1
     2    11     9    1
     3     9     5    1
     4     5     6    2
     5     5     7   am
     6     7     4    1
     7     4    12    1
     8    12    13    1
     9    13    14   ar
    10    14    15   ar
    11    15    16   ar
    12    16    17   ar
    13    17    19    1
    14    19    20   ar
    15    20    21   ar
    16    21    22   ar
    17    22    23   ar
    18    17    18   ar
    19     4     1    1
    20     1     2    1
    21     1    24    1
    22    24    25    1
    23    27    25    1
    24    27    28    1
    25    28    29    1
    26    29    30    1
    27    30    31    1
    28    31    32    1
    29    29    33    1
    30    33    34    1
    31    34    35   ar
    32    35    36   ar
    33    36    37   ar
    34    37    40    1
    35    40    41    1
    36    41    42    1
    37    41    43    1
    38    41    44    1
    39    37    38   ar
    40    38    39   ar
    41    18    13   ar
    42    39    27    1
    43    23    19   ar
    44    32    29    1
    45    39    34   ar
    46     7     8    1
    47     2     3    1
    48    25    26    1
