@<TRIPOS>MOLECULE
*****
 33 36 0 0 0
SMALL
GASTEIGER

@<TRIPOS>ATOM
      1 C          65.7894   91.7907   12.7635 C.ar    1  UNL1        0.0535
      2 C          65.6383   91.4384   14.2137 C.ar    1  UNL1        0.0422
      3 C          66.6634   91.6597   15.2862 C.3     1  UNL1        0.0502
      4 N          64.2822   90.8261   14.4031 N.ar    1  UNL1       -0.3121
      5 C          63.5951   90.7998   13.0700 C.ar    1  UNL1        0.1439
      6 N          62.2417   90.3101   12.6478 N.ar    1  UNL1       -0.2268
      7 C          61.8197   90.4165   11.2124 C.ar    1  UNL1        0.1005
      8 C          62.7513   91.0127   10.1990 C.ar    1  UNL1        0.0208
      9 C          64.1047   91.5024   10.6212 C.ar    1  UNL1        0.0047
     10 C          64.5267   91.3960   12.0566 C.ar    1  UNL1        0.0384
     11 C          66.9921   92.4260   12.1312 C.2     1  UNL1        0.1967
     12 O          68.3685   91.9544   12.4959 O.2     1  UNL1       -0.2865
     13 C          66.4710   95.7473    9.1399 C.ar    1  UNL1        0.1387
     14 C          65.9733   95.9181   10.5445 C.ar    1  UNL1        0.0370
     15 C          66.1469   94.8111   11.5416 C.ar    1  UNL1        0.0063
     16 C          66.8184   93.5332   11.1341 C.ar    1  UNL1        0.0392
     17 C          67.3161   93.3624    9.7294 C.ar    1  UNL1        0.0063
     18 C          67.1425   94.4694    8.7323 C.ar    1  UNL1        0.0370
     19 C          65.5679   96.5985    6.8573 C.3     1  UNL1        0.2525
     20 O          66.2973   96.8544    8.1428 O.3     1  UNL1       -0.4714
     21 C          63.7130   90.3275   15.6983 C.3     1  UNL1        0.1339
     22 C          63.6147   88.8530   15.9561 C.ar    1  UNL1        0.0034
     23 C          62.9542   88.3526   17.2064 C.ar    1  UNL1       -0.0022
     24 C          62.8559   86.8783   17.4643 C.ar    1  UNL1        0.0029
     25 C          63.4182   85.9042   16.4718 C.ar    1  UNL1        0.0369
     26 C          64.0787   86.4046   15.2214 C.ar    1  UNL1        0.1387
     27 C          64.1770   87.8789   14.9636 C.ar    1  UNL1        0.0345
     28 O          64.6410   85.4305   14.2289 O.3     1  UNL1       -0.4736
     29 C          63.7294   84.4769   13.5149 C.3     1  UNL1        0.2020
     30 C          62.8772   84.9617   12.3796 C.3     1  UNL1        0.0536
     31 C          63.6701   83.0385   13.9362 C.2     1  UNL1        0.0900
     32 O          63.2197   81.9899   12.9627 O.co2   1  UNL1       -0.5455
     33 O          64.0610   82.6487   15.3308 O.co2   1  UNL1       -0.5455
@<TRIPOS>UNITY_ATOM_ATTR
32 1
charge -1
@<TRIPOS>BOND
     1    19    20    1
     2    20    13    1
     3    13    14   ar
     4    14    15   ar
     5    15    16   ar
     6    16    11    1
     7    11    12    2
     8    11     1    1
     9     1     2   ar
    10     2     3    1
    11     2     4   ar
    12     4    21    1
    13    21    22    1
    14    22    23   ar
    15    23    24   ar
    16    24    25   ar
    17    25    26   ar
    18    26    28    1
    19    28    29    1
    20    29    30    1
    21    29    31    1
    22    31    32   ar
    23    31    33   ar
    24    26    27   ar
    25     4     5   ar
    26     5     6   ar
    27     6     7   ar
    28     7     8   ar
    29     8     9   ar
    30     9    10   ar
    31    16    17   ar
    32    17    18   ar
    33    18    13   ar
    34    10     1   ar
    35    27    22   ar
    36    10     5   ar
@<TRIPOS>MOLECULE
*****
 33 36 0 0 0
SMALL
GASTEIGER

@<TRIPOS>ATOM
      1 C          61.6283   88.2738   11.0197 C.ar    1  UNL1        0.0535
      2 C          62.4879   87.1293   11.4680 C.ar    1  UNL1        0.0422
      3 C          63.4102   87.1298   12.6510 C.3     1  UNL1        0.0502
      4 N          62.2634   85.9841   10.5256 N.ar    1  UNL1       -0.3121
      5 C          61.2650   86.4209    9.4948 C.ar    1  UNL1        0.1439
      6 N          60.6626   85.7129    8.3177 N.ar    1  UNL1       -0.2268
      7 C          59.6677   86.4200    7.4459 C.ar    1  UNL1        0.1005
      8 C          59.2753   87.8352    7.7512 C.ar    1  UNL1        0.0208
      9 C          59.8777   88.5432    8.9284 C.ar    1  UNL1        0.0047
     10 C          60.8725   87.8361    9.8002 C.ar    1  UNL1        0.0384
     11 C          61.5400   89.6199   11.6756 C.2     1  UNL1        0.1967
     12 O          60.2421   90.0814   12.2691 O.2     1  UNL1       -0.2865
     13 C          65.1692   92.2740   11.8631 C.ar    1  UNL1        0.1387
     14 C          64.4507   92.0768   10.5613 C.ar    1  UNL1        0.0370
     15 C          63.2410   91.1922   10.4987 C.ar    1  UNL1        0.0063
     16 C          62.7498   90.5047   11.7381 C.ar    1  UNL1        0.0392
     17 C          63.4684   90.7018   13.0399 C.ar    1  UNL1        0.0063
     18 C          64.6781   91.5864   13.1025 C.ar    1  UNL1        0.0370
     19 C          66.2962   94.5775   11.4459 C.3     1  UNL1        0.2525
     20 O          66.3790   93.1586   11.9256 O.3     1  UNL1       -0.4714
     21 C          62.9216   84.6383   10.6008 C.3     1  UNL1        0.1339
     22 C          62.7324   83.7776   11.8147 C.ar    1  UNL1        0.0034
     23 C          62.5170   82.3011   11.6610 C.ar    1  UNL1       -0.0022
     24 C          62.3278   81.4404   12.8748 C.ar    1  UNL1        0.0029
     25 C          62.3541   82.0562   14.2423 C.ar    1  UNL1        0.0369
     26 C          62.5696   83.5326   14.3960 C.ar    1  UNL1        0.1387
     27 C          62.7587   84.3934   13.1822 C.ar    1  UNL1        0.0345
     28 O          62.5958   84.1484   15.7635 O.3     1  UNL1       -0.4736
     29 C          63.4723   85.3352   16.0350 C.3     1  UNL1        0.2020
     30 C          64.8739   85.3699   15.5018 C.3     1  UNL1        0.0536
     31 C          62.9471   86.4870   16.8396 C.2     1  UNL1        0.0900
     32 O          63.3280   87.8915   16.4756 O.co2   1  UNL1       -0.5455
     33 O          62.0412   86.2345   18.0081 O.co2   1  UNL1       -0.5455
@<TRIPOS>UNITY_ATOM_ATTR
32 1
charge -1
@<TRIPOS>BOND
     1    19    20    1
     2    20    13    1
     3    13    14   ar
     4    14    15   ar
     5    15    16   ar
     6    16    11    1
     7    11    12    2
     8    11     1    1
     9     1     2   ar
    10     2     3    1
    11     2     4   ar
    12     4    21    1
    13    21    22    1
    14    22    23   ar
    15    23    24   ar
    16    24    25   ar
    17    25    26   ar
    18    26    28    1
    19    28    29    1
    20    29    30    1
    21    29    31    1
    22    31    32   ar
    23    31    33   ar
    24    26    27   ar
    25     4     5   ar
    26     5     6   ar
    27     6     7   ar
    28     7     8   ar
    29     8     9   ar
    30     9    10   ar
    31    16    17   ar
    32    17    18   ar
    33    18    13   ar
    34    10     1   ar
    35    27    22   ar
    36    10     5   ar
@<TRIPOS>MOLECULE
*****
 33 36 0 0 0
SMALL
GASTEIGER

@<TRIPOS>ATOM
      1 C          63.6398   90.5679   13.6653 C.ar    1  UNL1        0.0535
      2 C          62.5930   90.1984   12.6565 C.ar    1  UNL1        0.0422
      3 C          61.3865   89.3440   12.9104 C.3     1  UNL1        0.0502
      4 N          62.9645   90.8333   11.3492 N.ar    1  UNL1       -0.3121
      5 C          64.2409   91.5952   11.5501 C.ar    1  UNL1        0.1439
      6 N          65.0770   92.4171   10.6145 N.ar    1  UNL1       -0.2268
      7 C          66.3305   93.0750   11.1104 C.ar    1  UNL1        0.1005
      8 C          66.7478   92.9110   12.5418 C.ar    1  UNL1        0.0208
      9 C          65.9117   92.0891   13.4773 C.ar    1  UNL1        0.0047
     10 C          64.6582   91.4312   12.9815 C.ar    1  UNL1        0.0384
     11 C          63.6639   90.1480   15.1051 C.2     1  UNL1        0.1967
     12 O          63.6870   91.1850   16.1885 O.2     1  UNL1       -0.2865
     13 C          63.6672   85.7768   16.1740 C.ar    1  UNL1        0.1387
     14 C          62.9894   86.7681   17.0728 C.ar    1  UNL1        0.0370
     15 C          62.9883   88.2252   16.7165 C.ar    1  UNL1        0.0063
     16 C          63.6650   88.6908   15.4614 C.ar    1  UNL1        0.0392
     17 C          64.3428   87.6995   14.5627 C.ar    1  UNL1        0.0063
     18 C          64.3439   86.2424   14.9189 C.ar    1  UNL1        0.0370
     19 C          63.7322   83.2829   15.4482 C.3     1  UNL1        0.2525
     20 O          63.6682   84.3197   16.5304 O.3     1  UNL1       -0.4714
     21 C          62.1948   90.7252   10.0663 C.3     1  UNL1        0.1339
     22 C          61.6553   89.3969    9.6250 C.ar    1  UNL1        0.0034
     23 C          60.2912   89.3093    9.0071 C.ar    1  UNL1       -0.0022
     24 C          59.7517   87.9811    8.5658 C.ar    1  UNL1        0.0029
     25 C          60.5762   86.7405    8.7423 C.ar    1  UNL1        0.0369
     26 C          61.9403   86.8282    9.3601 C.ar    1  UNL1        0.1387
     27 C          62.4798   88.1563    9.8015 C.ar    1  UNL1        0.0345
     28 O          62.7648   85.5876    9.5366 O.3     1  UNL1       -0.4736
     29 C          62.7745   84.8750   10.8566 C.3     1  UNL1        0.2020
     30 C          62.1528   85.5181   12.0607 C.3     1  UNL1        0.0536
     31 C          63.4058   83.5192   10.9723 C.2     1  UNL1        0.0900
     32 O          64.6597   83.2083   10.2099 O.co2   1  UNL1       -0.5455
     33 O          62.7834   82.4745   11.8503 O.co2   1  UNL1       -0.5455
@<TRIPOS>UNITY_ATOM_ATTR
32 1
charge -1
@<TRIPOS>BOND
     1    19    20    1
     2    20    13    1
     3    13    14   ar
     4    14    15   ar
     5    15    16   ar
     6    16    11    1
     7    11    12    2
     8    11     1    1
     9     1     2   ar
    10     2     3    1
    11     2     4   ar
    12     4    21    1
    13    21    22    1
    14    22    23   ar
    15    23    24   ar
    16    24    25   ar
    17    25    26   ar
    18    26    28    1
    19    28    29    1
    20    29    30    1
    21    29    31    1
    22    31    32   ar
    23    31    33   ar
    24    26    27   ar
    25     4     5   ar
    26     5     6   ar
    27     6     7   ar
    28     7     8   ar
    29     8     9   ar
    30     9    10   ar
    31    16    17   ar
    32    17    18   ar
    33    18    13   ar
    34    10     1   ar
    35    27    22   ar
    36    10     5   ar
@<TRIPOS>MOLECULE
*****
 33 36 0 0 0
SMALL
GASTEIGER

@<TRIPOS>ATOM
      1 C          63.4974   86.1374   12.9286 C.ar    1  UNL1        0.0535
      2 C          63.7268   87.4143   13.6815 C.ar    1  UNL1        0.0422
      3 C          64.4740   87.5532   14.9747 C.3     1  UNL1        0.0502
      4 N          63.0779   88.5278   12.9141 N.ar    1  UNL1       -0.3121
      5 C          62.4474   87.9392   11.6869 C.ar    1  UNL1        0.1439
      6 N          61.6708   88.5576   10.5625 N.ar    1  UNL1       -0.2268
      7 C          61.1533   87.6985    9.4471 C.ar    1  UNL1        0.1005
      8 C          61.4125   86.2211    9.4560 C.ar    1  UNL1        0.0208
      9 C          62.1892   85.6028   10.5804 C.ar    1  UNL1        0.0047
     10 C          62.7066   86.4618   11.6959 C.ar    1  UNL1        0.0384
     11 C          63.9748   84.7752   13.3367 C.2     1  UNL1        0.1967
     12 O          64.7006   84.5931   14.6367 O.2     1  UNL1       -0.2865
     13 C          63.2295   81.2347   10.6610 C.ar    1  UNL1        0.1387
     14 C          64.2412   82.2707   10.2697 C.ar    1  UNL1        0.0370
     15 C          64.4896   83.4509   11.1616 C.ar    1  UNL1        0.0063
     16 C          63.7263   83.5950   12.4448 C.ar    1  UNL1        0.0392
     17 C          62.7146   82.5590   12.8361 C.ar    1  UNL1        0.0063
     18 C          62.4662   81.3788   11.9442 C.ar    1  UNL1        0.0370
     19 C          62.7750   78.6937   10.3656 C.3     1  UNL1        0.2525
     20 O          62.9811   80.0545    9.7691 O.3     1  UNL1       -0.4714
     21 C          63.0623   89.9759   13.3052 C.3     1  UNL1        0.1339
     22 C          64.2662   90.8342   13.0520 C.ar    1  UNL1        0.0034
     23 C          65.3681   90.8989   14.0677 C.ar    1  UNL1       -0.0022
     24 C          66.5720   91.7571   13.8146 C.ar    1  UNL1        0.0029
     25 C          66.6739   92.5507   12.5458 C.ar    1  UNL1        0.0369
     26 C          65.5720   92.4861   11.5302 C.ar    1  UNL1        0.1387
     27 C          64.3681   91.6278   11.7833 C.ar    1  UNL1        0.0345
     28 O          65.6739   93.2797   10.2614 O.3     1  UNL1       -0.4736
     29 C          66.5115   94.5235   10.2200 C.3     1  UNL1        0.2020
     30 C          66.1308   95.7121   11.0519 C.3     1  UNL1        0.0536
     31 C          67.7297   94.5785    9.3465 C.2     1  UNL1        0.0900
     32 O          68.9244   93.7316    9.6716 O.co2   1  UNL1       -0.5455
     33 O          67.7533   95.4803    8.1482 O.co2   1  UNL1       -0.5455
@<TRIPOS>UNITY_ATOM_ATTR
32 1
charge -1
@<TRIPOS>BOND
     1    19    20    1
     2    20    13    1
     3    13    14   ar
     4    14    15   ar
     5    15    16   ar
     6    16    11    1
     7    11    12    2
     8    11     1    1
     9     1     2   ar
    10     2     3    1
    11     2     4   ar
    12     4    21    1
    13    21    22    1
    14    22    23   ar
    15    23    24   ar
    16    24    25   ar
    17    25    26   ar
    18    26    28    1
    19    28    29    1
    20    29    30    1
    21    29    31    1
    22    31    32   ar
    23    31    33   ar
    24    26    27   ar
    25     4     5   ar
    26     5     6   ar
    27     6     7   ar
    28     7     8   ar
    29     8     9   ar
    30     9    10   ar
    31    16    17   ar
    32    17    18   ar
    33    18    13   ar
    34    10     1   ar
    35    27    22   ar
    36    10     5   ar
@<TRIPOS>MOLECULE
*****
 33 36 0 0 0
SMALL
GASTEIGER

@<TRIPOS>ATOM
      1 C          63.5989   90.9395   12.1303 C.ar    1  UNL1        0.0535
      2 C          62.9257   90.2530   13.2815 C.ar    1  UNL1        0.0422
      3 C          61.6284   89.5021   13.2239 C.3     1  UNL1        0.0502
      4 N          63.7775   90.4491   14.5005 N.ar    1  UNL1       -0.3121
      5 C          64.9772   91.2569   14.1027 C.ar    1  UNL1        0.1439
      6 N          66.1558   91.7555   14.8850 N.ar    1  UNL1       -0.2268
      7 C          67.2241   92.5573   14.2025 C.ar    1  UNL1        0.1005
      8 C          67.1137   92.8604   12.7376 C.ar    1  UNL1        0.0208
      9 C          65.9351   92.3617   11.9552 C.ar    1  UNL1        0.0047
     10 C          64.8668   91.5599   12.6378 C.ar    1  UNL1        0.0384
     11 C          63.0931   90.9958   10.7193 C.2     1  UNL1        0.1967
     12 O          63.4465   92.1597    9.8417 O.2     1  UNL1       -0.2865
     13 C          60.5153   87.6725    9.1190 C.ar    1  UNL1        0.1387
     14 C          61.9113   87.3812    9.5841 C.ar    1  UNL1        0.0370
     15 C          62.7706   88.4889   10.1175 C.ar    1  UNL1        0.0063
     16 C          62.2338   89.8879   10.1858 C.ar    1  UNL1        0.0392
     17 C          60.8378   90.1792    9.7207 C.ar    1  UNL1        0.0063
     18 C          59.9786   89.0715    9.1873 C.ar    1  UNL1        0.0370
     19 C          60.1318   85.7373    7.4282 C.3     1  UNL1        0.2525
     20 O          59.6561   86.5647    8.5855 O.3     1  UNL1       -0.4714
     21 C          63.4816   89.9288   15.8759 C.3     1  UNL1        0.1339
     22 C          63.4772   88.4511   16.1340 C.ar    1  UNL1        0.0034
     23 C          62.8231   87.9075   17.3695 C.ar    1  UNL1       -0.0022
     24 C          62.8187   86.4299   17.6276 C.ar    1  UNL1        0.0029
     25 C          63.4684   85.4959   16.6502 C.ar    1  UNL1        0.0369
     26 C          64.1226   86.0396   15.4146 C.ar    1  UNL1        0.1387
     27 C          64.1270   87.5171   15.1565 C.ar    1  UNL1        0.0345
     28 O          64.7724   85.1056   14.4372 O.3     1  UNL1       -0.4736
     29 C          63.9310   84.3349   13.4633 C.3     1  UNL1        0.2020
     30 C          63.0070   85.0613   12.5314 C.3     1  UNL1        0.0536
     31 C          64.0138   82.8377   13.4214 C.2     1  UNL1        0.0900
     32 O          63.6011   82.0301   14.6162 O.co2   1  UNL1       -0.5455
     33 O          64.5091   82.1482   12.1849 O.co2   1  UNL1       -0.5455
@<TRIPOS>UNITY_ATOM_ATTR
32 1
charge -1
@<TRIPOS>BOND
     1    19    20    1
     2    20    13    1
     3    13    14   ar
     4    14    15   ar
     5    15    16   ar
     6    16    11    1
     7    11    12    2
     8    11     1    1
     9     1     2   ar
    10     2     3    1
    11     2     4   ar
    12     4    21    1
    13    21    22    1
    14    22    23   ar
    15    23    24   ar
    16    24    25   ar
    17    25    26   ar
    18    26    28    1
    19    28    29    1
    20    29    30    1
    21    29    31    1
    22    31    32   ar
    23    31    33   ar
    24    26    27   ar
    25     4     5   ar
    26     5     6   ar
    27     6     7   ar
    28     7     8   ar
    29     8     9   ar
    30     9    10   ar
    31    16    17   ar
    32    17    18   ar
    33    18    13   ar
    34    10     1   ar
    35    27    22   ar
    36    10     5   ar
@<TRIPOS>MOLECULE
*****
 33 36 0 0 0
SMALL
GASTEIGER

@<TRIPOS>ATOM
      1 C          64.7074   91.5293   12.8021 C.ar    1  UNL1        0.0535
      2 C          63.7124   90.7247   13.5848 C.ar    1  UNL1        0.0422
      3 C          62.5251   90.0014   13.0217 C.3     1  UNL1        0.0502
      4 N          64.1132   90.7705   15.0295 N.ar    1  UNL1       -0.3121
      5 C          65.3559   91.6033   15.1397 C.ar    1  UNL1        0.1439
      6 N          66.2005   91.9952   16.3157 N.ar    1  UNL1       -0.2268
      7 C          67.4123   92.8561   16.1150 C.ar    1  UNL1        0.1005
      8 C          67.7796   93.3250   14.7384 C.ar    1  UNL1        0.0208
      9 C          66.9350   92.9332   13.5624 C.ar    1  UNL1        0.0047
     10 C          65.7231   92.0723   13.7630 C.ar    1  UNL1        0.0384
     11 C          64.6898   91.7518   11.3188 C.2     1  UNL1        0.1967
     12 O          63.8476   90.8764   10.4390 O.2     1  UNL1       -0.2865
     13 C          67.1637   95.0460    9.5083 C.ar    1  UNL1        0.1387
     14 C          65.9080   95.3771   10.2589 C.ar    1  UNL1        0.0370
     15 C          65.0833   94.2791   10.8624 C.ar    1  UNL1        0.0063
     16 C          65.5144   92.8500   10.7153 C.ar    1  UNL1        0.0392
     17 C          66.7702   92.5189    9.9647 C.ar    1  UNL1        0.0063
     18 C          67.5949   93.6169    9.3611 C.ar    1  UNL1        0.0370
     19 C          67.5061   96.8552    7.6752 C.3     1  UNL1        0.2525
     20 O          67.9883   96.1441    8.9048 O.3     1  UNL1       -0.4714
     21 C          63.3971   90.1009   16.1648 C.3     1  UNL1        0.1339
     22 C          63.4149   88.6058   16.2853 C.ar    1  UNL1        0.0034
     23 C          62.7691   87.9406   17.4644 C.ar    1  UNL1       -0.0022
     24 C          62.7868   86.4456   17.5849 C.ar    1  UNL1        0.0029
     25 C          63.4505   85.6157   16.5262 C.ar    1  UNL1        0.0369
     26 C          64.0963   86.2809   15.3470 C.ar    1  UNL1        0.1387
     27 C          64.0785   87.7759   15.2265 C.ar    1  UNL1        0.0345
     28 O          64.7600   85.4510   14.2883 O.3     1  UNL1       -0.4736
     29 C          63.9645   84.4348   13.5236 C.3     1  UNL1        0.2020
     30 C          64.0078   82.9906   13.9265 C.3     1  UNL1        0.0536
     31 C          63.1258   84.8629   12.3560 C.2     1  UNL1        0.0900
     32 O          62.8903   83.9177   11.2152 O.co2   1  UNL1       -0.5455
     33 O          62.5226   86.2359   12.3291 O.co2   1  UNL1       -0.5455
@<TRIPOS>UNITY_ATOM_ATTR
32 1
charge -1
@<TRIPOS>BOND
     1    19    20    1
     2    20    13    1
     3    13    14   ar
     4    14    15   ar
     5    15    16   ar
     6    16    11    1
     7    11    12    2
     8    11     1    1
     9     1     2   ar
    10     2     3    1
    11     2     4   ar
    12     4    21    1
    13    21    22    1
    14    22    23   ar
    15    23    24   ar
    16    24    25   ar
    17    25    26   ar
    18    26    28    1
    19    28    29    1
    20    29    30    1
    21    29    31    1
    22    31    32   ar
    23    31    33   ar
    24    26    27   ar
    25     4     5   ar
    26     5     6   ar
    27     6     7   ar
    28     7     8   ar
    29     8     9   ar
    30     9    10   ar
    31    16    17   ar
    32    17    18   ar
    33    18    13   ar
    34    10     1   ar
    35    27    22   ar
    36    10     5   ar
@<TRIPOS>MOLECULE
*****
 33 36 0 0 0
SMALL
GASTEIGER

@<TRIPOS>ATOM
      1 C          65.1024   92.1442   13.7209 C.ar    1  UNL1        0.0535
      2 C          64.8799   91.6894   15.1329 C.ar    1  UNL1        0.0422
      3 C          65.6082   92.1891   16.3453 C.3     1  UNL1        0.0502
      4 N          63.8012   90.6472   15.1196 N.ar    1  UNL1       -0.3121
      5 C          63.3570   90.4579   13.6994 C.ar    1  UNL1        0.1439
      6 N          62.3242   89.5625   13.0817 N.ar    1  UNL1       -0.2268
      7 C          62.0956   89.5924   11.5996 C.ar    1  UNL1        0.1005
      8 C          62.8998   90.5175   10.7351 C.ar    1  UNL1        0.0208
      9 C          63.9326   91.4129   11.3528 C.ar    1  UNL1        0.0047
     10 C          64.1612   91.3830   12.8350 C.ar    1  UNL1        0.0384
     11 C          66.0923   93.1785   13.2734 C.2     1  UNL1        0.1967
     12 O          66.4284   94.3327   14.1704 O.2     1  UNL1       -0.2865
     13 C          68.0540   92.8186    9.2395 C.ar    1  UNL1        0.1387
     14 C          68.3872   91.8391   10.3255 C.ar    1  UNL1        0.0370
     15 C          67.7333   91.9590   11.6702 C.ar    1  UNL1        0.0063
     16 C          66.7463   93.0585   11.9287 C.ar    1  UNL1        0.0392
     17 C          66.4131   94.0380   10.8426 C.ar    1  UNL1        0.0063
     18 C          67.0669   93.9181    9.4980 C.ar    1  UNL1        0.0370
     19 C          69.6052   91.5337    7.5984 C.3     1  UNL1        0.2525
     20 O          68.7079   92.6987    7.8949 O.3     1  UNL1       -0.4714
     21 C          63.2613   89.9218   16.3164 C.3     1  UNL1        0.1339
     22 C          63.3229   88.4241   16.3764 C.ar    1  UNL1        0.0034
     23 C          62.6960   87.6932   17.5265 C.ar    1  UNL1       -0.0022
     24 C          62.7575   86.1957   17.5865 C.ar    1  UNL1        0.0029
     25 C          63.4459   85.4291   16.4963 C.ar    1  UNL1        0.0369
     26 C          64.0728   86.1601   15.3462 C.ar    1  UNL1        0.1387
     27 C          64.0113   87.6576   15.2862 C.ar    1  UNL1        0.0345
     28 O          64.7611   85.3935   14.2560 O.3     1  UNL1       -0.4736
     29 C          63.9765   84.4532   13.3897 C.3     1  UNL1        0.2020
     30 C          63.1186   84.9919   12.2834 C.3     1  UNL1        0.0536
     31 C          64.0497   82.9744   13.6298 C.2     1  UNL1        0.0900
     32 O          64.0638   82.4420   15.0321 O.co2   1  UNL1       -0.5455
     33 O          64.1088   82.0279   12.4676 O.co2   1  UNL1       -0.5455
@<TRIPOS>UNITY_ATOM_ATTR
32 1
charge -1
@<TRIPOS>BOND
     1    19    20    1
     2    20    13    1
     3    13    14   ar
     4    14    15   ar
     5    15    16   ar
     6    16    11    1
     7    11    12    2
     8    11     1    1
     9     1     2   ar
    10     2     3    1
    11     2     4   ar
    12     4    21    1
    13    21    22    1
    14    22    23   ar
    15    23    24   ar
    16    24    25   ar
    17    25    26   ar
    18    26    28    1
    19    28    29    1
    20    29    30    1
    21    29    31    1
    22    31    32   ar
    23    31    33   ar
    24    26    27   ar
    25     4     5   ar
    26     5     6   ar
    27     6     7   ar
    28     7     8   ar
    29     8     9   ar
    30     9    10   ar
    31    16    17   ar
    32    17    18   ar
    33    18    13   ar
    34    10     1   ar
    35    27    22   ar
    36    10     5   ar
@<TRIPOS>MOLECULE
*****
 33 36 0 0 0
SMALL
GASTEIGER

@<TRIPOS>ATOM
      1 C          61.9699   90.3747   11.6612 C.ar    1  UNL1        0.0535
      2 C          61.9462   89.8841   13.0785 C.ar    1  UNL1        0.0422
      3 C          60.8464   89.0898   13.7183 C.3     1  UNL1        0.0502
      4 N          63.2156   90.3272   13.7436 N.ar    1  UNL1       -0.3121
      5 C          64.0237   91.0917   12.7374 C.ar    1  UNL1        0.1439
      6 N          65.3612   91.7649   12.8268 N.ar    1  UNL1       -0.2268
      7 C          65.9287   92.4674   11.6292 C.ar    1  UNL1        0.1005
      8 C          65.1588   92.4968   10.3422 C.ar    1  UNL1        0.0208
      9 C          63.8214   91.8236   10.2528 C.ar    1  UNL1        0.0047
     10 C          63.2539   91.1211   11.4504 C.ar    1  UNL1        0.0384
     11 C          60.8978   90.1572   10.6349 C.2     1  UNL1        0.1967
     12 O          59.7946   91.1613   10.4783 O.2     1  UNL1       -0.2865
     13 C          60.9914   86.4921    8.0255 C.ar    1  UNL1        0.1387
     14 C          59.9038   87.5101    7.8501 C.ar    1  UNL1        0.0370
     15 C          59.8725   88.7318    8.7199 C.ar    1  UNL1        0.0063
     16 C          60.9290   88.9355    9.7650 C.ar    1  UNL1        0.0392
     17 C          62.0167   87.9175    9.9404 C.ar    1  UNL1        0.0063
     18 C          62.0479   86.6958    9.0707 C.ar    1  UNL1        0.0370
     19 C          62.3354   84.7184    6.6846 C.3     1  UNL1        0.2525
     20 O          61.0226   85.2705    7.1557 O.3     1  UNL1       -0.4714
     21 C          63.6079   90.0539   15.1653 C.3     1  UNL1        0.1339
     22 C          63.5871   88.6496   15.6924 C.ar    1  UNL1        0.0034
     23 C          62.9656   88.3583   17.0262 C.ar    1  UNL1       -0.0022
     24 C          62.9448   86.9542   17.5533 C.ar    1  UNL1        0.0029
     25 C          63.5454   85.8413   16.7465 C.ar    1  UNL1        0.0369
     26 C          64.1668   86.1326   15.4128 C.ar    1  UNL1        0.1387
     27 C          64.1877   87.5368   14.8857 C.ar    1  UNL1        0.0345
     28 O          64.7674   85.0197   14.6061 O.3     1  UNL1       -0.4736
     29 C          63.8787   84.0793   13.8472 C.3     1  UNL1        0.2020
     30 C          63.6260   82.6974   14.3732 C.3     1  UNL1        0.0536
     31 C          63.2427   84.5207   12.5624 C.2     1  UNL1        0.0900
     32 O          62.2234   85.6211   12.5695 O.co2   1  UNL1       -0.5455
     33 O          63.6260   83.8617   11.2706 O.co2   1  UNL1       -0.5455
@<TRIPOS>UNITY_ATOM_ATTR
32 1
charge -1
@<TRIPOS>BOND
     1    19    20    1
     2    20    13    1
     3    13    14   ar
     4    14    15   ar
     5    15    16   ar
     6    16    11    1
     7    11    12    2
     8    11     1    1
     9     1     2   ar
    10     2     3    1
    11     2     4   ar
    12     4    21    1
    13    21    22    1
    14    22    23   ar
    15    23    24   ar
    16    24    25   ar
    17    25    26   ar
    18    26    28    1
    19    28    29    1
    20    29    30    1
    21    29    31    1
    22    31    32   ar
    23    31    33   ar
    24    26    27   ar
    25     4     5   ar
    26     5     6   ar
    27     6     7   ar
    28     7     8   ar
    29     8     9   ar
    30     9    10   ar
    31    16    17   ar
    32    17    18   ar
    33    18    13   ar
    34    10     1   ar
    35    27    22   ar
    36    10     5   ar
@<TRIPOS>MOLECULE
*****
 33 36 0 0 0
SMALL
GASTEIGER

@<TRIPOS>ATOM
      1 C          61.9631   88.1402   11.4128 C.ar    1  UNL1        0.0535
      2 C          62.3628   89.4474   12.0305 C.ar    1  UNL1        0.0422
      3 C          61.9229   90.8079   11.5771 C.3     1  UNL1        0.0502
      4 N          63.2795   89.1552   13.1813 N.ar    1  UNL1       -0.3121
      5 C          63.4464   87.6674   13.2747 C.ar    1  UNL1        0.1439
      6 N          64.2341   86.8029   14.2139 N.ar    1  UNL1       -0.2268
      7 C          64.2082   85.3110   14.0600 C.ar    1  UNL1        0.1005
      8 C          63.3947   84.6838   12.9670 C.ar    1  UNL1        0.0208
      9 C          62.6070   85.5483   12.0279 C.ar    1  UNL1        0.0047
     10 C          62.6329   87.0401   12.1817 C.ar    1  UNL1        0.0384
     11 C          61.0535   87.9640   10.2332 C.2     1  UNL1        0.1967
     12 O          59.8055   88.7881   10.1187 O.2     1  UNL1       -0.2865
     13 C          62.0688   84.9630    7.0374 C.ar    1  UNL1        0.1387
     14 C          63.1320   85.4436    7.9799 C.ar    1  UNL1        0.0370
     15 C          62.7937   86.4439    9.0452 C.ar    1  UNL1        0.0063
     16 C          61.3920   86.9636    9.1679 C.ar    1  UNL1        0.0392
     17 C          60.3287   86.4830    8.2253 C.ar    1  UNL1        0.0063
     18 C          60.6670   85.4827    7.1601 C.ar    1  UNL1        0.0370
     19 C          61.7542   84.0518    4.6247 C.3     1  UNL1        0.2525
     20 O          62.4072   83.9626    5.9721 O.3     1  UNL1       -0.4714
     21 C          63.9173   90.1722   14.0807 C.3     1  UNL1        0.1339
     22 C          65.0227   91.0436   13.5622 C.ar    1  UNL1        0.0034
     23 C          66.3379   91.0944   14.2818 C.ar    1  UNL1       -0.0022
     24 C          67.4433   91.9658   13.7634 C.ar    1  UNL1        0.0029
     25 C          67.2335   92.7864   12.5255 C.ar    1  UNL1        0.0369
     26 C          65.9183   92.7357   11.8059 C.ar    1  UNL1        0.1387
     27 C          64.8129   91.8643   12.3243 C.ar    1  UNL1        0.0345
     28 O          65.7085   93.5563   10.5680 O.3     1  UNL1       -0.4736
     29 C          66.5000   94.8132   10.3583 C.3     1  UNL1        0.2020
     30 C          66.1459   96.0579   11.1168 C.3     1  UNL1        0.0536
     31 C          67.6455   94.8254    9.3900 C.2     1  UNL1        0.0900
     32 O          68.8033   93.8920    9.5861 O.co2   1  UNL1       -0.5455
     33 O          67.6334   95.7709    8.2256 O.co2   1  UNL1       -0.5455
@<TRIPOS>UNITY_ATOM_ATTR
32 1
charge -1
@<TRIPOS>BOND
     1    19    20    1
     2    20    13    1
     3    13    14   ar
     4    14    15   ar
     5    15    16   ar
     6    16    11    1
     7    11    12    2
     8    11     1    1
     9     1     2   ar
    10     2     3    1
    11     2     4   ar
    12     4    21    1
    13    21    22    1
    14    22    23   ar
    15    23    24   ar
    16    24    25   ar
    17    25    26   ar
    18    26    28    1
    19    28    29    1
    20    29    30    1
    21    29    31    1
    22    31    32   ar
    23    31    33   ar
    24    26    27   ar
    25     4     5   ar
    26     5     6   ar
    27     6     7   ar
    28     7     8   ar
    29     8     9   ar
    30     9    10   ar
    31    16    17   ar
    32    17    18   ar
    33    18    13   ar
    34    10     1   ar
    35    27    22   ar
    36    10     5   ar
