@<TRIPOS>MOLECULE
*****
 66 73 0 0 0
SMALL
GASTEIGER

@<TRIPOS>ATOM
      1 N          65.4864   89.8716   13.8268 N.3     1  UNL1       -0.1862
      2 C          65.9079   88.7531   14.7330 C.3     1  UNL1        0.1775
      3 C          65.1504   87.4584   14.7288 C.2     1  UNL1        0.2452
      4 O          65.5719   86.3399   15.6351 O.2     1  UNL1       -0.2732
      5 N          63.9715   87.2823   13.8183 N.am    1  UNL1       -0.2541
      6 C          63.2140   85.9876   13.8140 C.3     1  UNL1        0.1577
      7 C          62.0350   85.8114   12.9036 C.2     1  UNL1        0.2445
      8 O          61.2775   84.5167   12.8993 O.2     1  UNL1       -0.2731
      9 N          61.6135   86.9299   11.9973 N.am    1  UNL1       -0.2705
     10 C          62.3710   88.2246   12.0015 C.3     1  UNL1        0.1359
     11 C          63.5500   88.4008   12.9121 C.3     1  UNL1        0.1908
     12 N          64.3075   89.6954   12.9163 N.am    1  UNL1       -0.1863
     13 C          63.8860   90.8140   12.0100 C.2     1  UNL1        0.3191
     14 O          62.7070   90.6378   11.0996 O.2     1  UNL1       -0.2512
     15 N          64.6435   92.1086   12.0143 N.am    1  UNL1       -0.2836
     16 H          65.4173   92.2243   12.6119 H       1  UNL1        0.1513
     17 C          66.2439   91.1663   13.8311 C.3     1  UNL1        0.1188
     18 C          67.4229   92.7185   15.5488 C.2     1  UNL1       -0.0034
     19 C          67.3266   91.3985   14.8429 C.2     1  UNL1       -0.0071
     20 C          63.6354   84.8691   14.7203 C.3     1  UNL1        0.0556
     21 C          63.3538   83.4465   14.3368 C.ar    1  UNL1       -0.0198
     22 C          62.1459   82.7468   14.8858 C.ar    1  UNL1       -0.0011
     23 C          61.8643   81.3243   14.5024 C.ar    1  UNL1        0.0363
     24 C          62.7906   80.6014   13.5700 C.ar    1  UNL1        0.1337
     25 O          62.5090   79.1788   13.1866 O.3     1  UNL1       -0.5055
     26 C          63.9986   81.3011   13.0210 C.ar    1  UNL1        0.0363
     27 C          64.2802   82.7236   13.4044 C.ar    1  UNL1       -0.0011
     28 H          61.7545   78.7417   13.5295 H       1  UNL1        0.2922
     29 C          60.4346   86.7538   11.0868 C.3     1  UNL1        0.1217
     30 C          60.5741   87.0248    9.6181 C.ar    1  UNL1        0.0135
     31 C          61.1166   85.9633    8.7077 C.ar    1  UNL1       -0.0012
     32 C          61.2561   86.2343    7.2390 C.ar    1  UNL1       -0.0002
     33 C          60.8531   87.5669    6.6807 C.ar    1  UNL1        0.0015
     34 C          60.3106   88.6285    7.5911 C.ar    1  UNL1        0.0170
     35 C          59.8345   90.0268    7.3306 C.ar    1  UNL1        0.0201
     36 C          59.4008   90.6200    8.6382 C.ar    1  UNL1        0.0760
     37 N          59.6088   89.5883    9.7069 N.ar    1  UNL1       -0.3242
     38 C          59.3074   89.7577   11.1665 C.3     1  UNL1        0.1305
     39 C          60.1711   88.3574    9.0598 C.ar    1  UNL1        0.0575
     40 C          59.7985   90.7118    5.9965 C.ar    1  UNL1        0.0208
     41 C          61.0663   90.9058    5.2186 C.ar    1  UNL1        0.0045
     42 C          61.0302   91.5907    3.8846 C.ar    1  UNL1        0.0345
     43 C          59.7265   92.0816    3.3285 C.ar    1  UNL1        0.1353
     44 N          58.4587   91.8876    4.1064 N.ar    1  UNL1       -0.2290
     45 C          58.4948   91.2027    5.4404 C.ar    1  UNL1        0.1003
     46 N          59.6905   92.7665    1.9945 N.am    1  UNL1       -0.2535
     47 C          60.8937   92.7293    1.0995 C.2     1  UNL1        0.3088
     48 O          62.1329   92.0072    1.5386 O.2     1  UNL1       -0.2522
     49 N          60.8576   93.4143   -0.2345 N.am    1  UNL1       -0.2610
     50 C          62.0608   93.3770   -1.1294 C.3     1  UNL1        0.1141
     51 C          62.0249   94.0619   -2.4634 C.3     1  UNL1        0.1170
     52 N          60.7856   94.7841   -2.9025 N.3     1  UNL1       -0.1559
     53 C          59.5824   94.8213   -2.0076 C.3     1  UNL1        0.1170
     54 C          59.6184   94.1364   -0.6736 C.3     1  UNL1        0.1141
     55 H          58.8771   93.2405    1.7063 H       1  UNL1        0.1578
     56 S          60.7496   95.4690   -4.2364 S.O2    1  UNL1        0.0458
     57 C          60.7136   96.1540   -5.5705 C.3     1  UNL1        0.1960
     58 O          59.2680   95.6586   -4.0991 O.2     1  UNL1       -0.1572
     59 O          62.2312   95.2794   -4.3739 O.2     1  UNL1       -0.1572
     60 C          64.2220   93.2272   11.1081 C.3     1  UNL1        0.1177
     61 C          65.2579   94.0760   10.4326 C.ar    1  UNL1       -0.0025
     62 C          65.0795   95.5637   10.3630 C.ar    1  UNL1       -0.0026
     63 C          66.1155   96.4125    9.6875 C.ar    1  UNL1       -0.0003
     64 C          67.3298   95.7737    9.0816 C.ar    1  UNL1       -0.0000
     65 C          67.5083   94.2859    9.1511 C.ar    1  UNL1       -0.0003
     66 C          66.4723   93.4371    9.8266 C.ar    1  UNL1       -0.0026
@<TRIPOS>BOND
     1    18    19    2
     2    19    17    1
     3    17     1    1
     4     1     2    1
     5     2     3    1
     6     3     4    2
     7     3     5   am
     8     5     6    1
     9     6    20    1
    10    20    21    1
    11    21    22   ar
    12    22    23   ar
    13    23    24   ar
    14    24    25    1
    15    24    26   ar
    16    26    27   ar
    17     6     7    1
    18     7     8    2
    19     7     9   am
    20     9    29    1
    21    29    30    1
    22    30    31   ar
    23    31    32   ar
    24    32    33   ar
    25    33    34   ar
    26    34    35   ar
    27    35    40    1
    28    40    41   ar
    29    41    42   ar
    30    42    43   ar
    31    43    46    1
    32    46    47   am
    33    47    48    2
    34    47    49   am
    35    49    50    1
    36    50    51    1
    37    51    52    1
    38    52    56    1
    39    56    57    1
    40    56    58    2
    41    56    59    2
    42    52    53    1
    43    53    54    1
    44    43    44   ar
    45    44    45   ar
    46    35    36   ar
    47    36    37   ar
    48    37    38    1
    49    37    39   ar
    50     9    10    1
    51    11    10    1
    52    11    12    1
    53    12    13   am
    54    13    14    2
    55    13    15   am
    56    15    60    1
    57    60    61    1
    58    61    62   ar
    59    62    63   ar
    60    63    64   ar
    61    64    65   ar
    62    65    66   ar
    63    12     1    1
    64    66    61   ar
    65    11     5    1
    66    27    21   ar
    67    39    30   ar
    68    39    34   ar
    69    45    40   ar
    70    54    49    1
    71    25    28    1
    72    46    55    1
    73    15    16    1
@<TRIPOS>MOLECULE
*****
 66 73 0 0 0
SMALL
GASTEIGER

@<TRIPOS>ATOM
      1 N          64.6711   83.2051   13.0468 N.3     1  UNL1       -0.1862
      2 C          65.4013   84.1507   13.9537 C.3     1  UNL1        0.1775
      3 C          64.9186   85.5622   14.1112 C.2     1  UNL1        0.2452
      4 O          65.6489   86.5078   15.0182 O.2     1  UNL1       -0.2732
      5 N          63.7057   86.0281   13.3618 N.am    1  UNL1       -0.2541
      6 C          63.2230   87.4395   13.5193 C.3     1  UNL1        0.1577
      7 C          62.0101   87.9054   12.7698 C.2     1  UNL1        0.2445
      8 O          61.5274   89.3168   12.9273 O.2     1  UNL1       -0.2731
      9 N          61.2797   86.9598   11.8629 N.am    1  UNL1       -0.2705
     10 C          61.7624   85.5483   11.7054 C.3     1  UNL1        0.1359
     11 C          62.9754   85.0825   12.4549 C.3     1  UNL1        0.1908
     12 N          63.4581   83.6710   12.2974 N.am    1  UNL1       -0.1863
     13 C          62.7278   82.7254   11.3904 C.2     1  UNL1        0.3191
     14 O          61.5148   83.1913   10.6410 O.2     1  UNL1       -0.2512
     15 N          63.2105   81.3139   11.2329 N.am    1  UNL1       -0.2836
     16 H          64.0066   81.0082   11.7248 H       1  UNL1        0.1513
     17 C          65.1537   81.7937   12.8893 C.3     1  UNL1        0.1188
     18 C          63.2698   80.4409   14.0601 C.2     1  UNL1       -0.0034
     19 C          64.7270   80.7414   13.8693 C.2     1  UNL1       -0.0071
     20 C          63.9532   88.3851   14.4262 C.3     1  UNL1        0.0556
     21 C          64.4137   89.7156   13.9087 C.ar    1  UNL1       -0.0198
     22 C          63.9510   90.1991   12.5663 C.ar    1  UNL1       -0.0011
     23 C          64.4115   91.5296   12.0488 C.ar    1  UNL1        0.0363
     24 C          65.3346   92.3766   12.8737 C.ar    1  UNL1        0.1337
     25 O          65.7950   93.7070   12.3562 O.3     1  UNL1       -0.5055
     26 C          65.7972   91.8930   14.2162 C.ar    1  UNL1        0.0363
     27 C          65.3368   90.5626   14.7337 C.ar    1  UNL1       -0.0011
     28 H          65.5060   94.0091   11.5176 H       1  UNL1        0.2922
     29 C          60.0668   87.4256   11.1134 C.3     1  UNL1        0.1217
     30 C          60.0996   87.5179    9.6166 C.ar    1  UNL1        0.0135
     31 C          60.2811   86.2778    8.7925 C.ar    1  UNL1       -0.0012
     32 C          60.3139   86.3700    7.2958 C.ar    1  UNL1       -0.0002
     33 C          60.1651   87.7024    6.6230 C.ar    1  UNL1        0.0015
     34 C          59.9835   88.9425    7.4471 C.ar    1  UNL1        0.0170
     35 C          59.8123   90.3836    7.0677 C.ar    1  UNL1        0.0201
     36 C          59.6736   91.1820    8.3299 C.ar    1  UNL1        0.0760
     37 N          59.7592   90.2344    9.4894 N.ar    1  UNL1       -0.3242
     38 C          59.6691   90.6056   10.9400 C.3     1  UNL1        0.1305
     39 C          59.9508   88.8503    8.9439 C.ar    1  UNL1        0.0575
     40 C          59.7845   90.9303    5.6710 C.ar    1  UNL1        0.0208
     41 C          61.0442   90.9749    4.8579 C.ar    1  UNL1        0.0045
     42 C          61.0163   91.5216    3.4614 C.ar    1  UNL1        0.0345
     43 C          59.7289   92.0237    2.8780 C.ar    1  UNL1        0.1353
     44 N          58.4692   91.9790    3.6911 N.ar    1  UNL1       -0.2290
     45 C          58.4970   91.4323    5.0876 C.ar    1  UNL1        0.1003
     46 N          59.7011   92.5703    1.4814 N.am    1  UNL1       -0.2535
     47 C          59.8677   94.0428    1.2489 C.2     1  UNL1        0.3088
     48 O          60.0619   94.9687    2.4129 O.2     1  UNL1       -0.2522
     49 N          59.8399   94.5894   -0.1477 N.am    1  UNL1       -0.2610
     50 C          60.0064   96.0619   -0.3802 C.3     1  UNL1        0.1141
     51 C          59.9787   96.6086   -1.7767 C.3     1  UNL1        0.1170
     52 N          59.7844   95.6828   -2.9408 N.3     1  UNL1       -0.1559
     53 C          59.6179   94.2103   -2.7083 C.3     1  UNL1        0.1170
     54 C          59.6456   93.6636   -1.3118 C.3     1  UNL1        0.1141
     55 H          59.5736   91.9627    0.7174 H       1  UNL1        0.1578
     56 S          59.7566   96.2294   -4.3373 S.O2    1  UNL1        0.0458
     57 C          59.7289   96.7760   -5.7340 C.3     1  UNL1        0.1960
     58 O          58.3545   95.7243   -4.5072 O.2     1  UNL1       -0.1572
     59 O          61.1589   96.7344   -4.1676 O.2     1  UNL1       -0.1572
     60 C          62.4802   80.3684   10.3260 C.3     1  UNL1        0.1177
     61 C          63.0084   78.9818   10.1060 C.ar    1  UNL1       -0.0025
     62 C          64.0029   78.7226    9.0134 C.ar    1  UNL1       -0.0026
     63 C          64.5311   77.3360    8.7934 C.ar    1  UNL1       -0.0003
     64 C          64.0647   76.2086    9.6659 C.ar    1  UNL1       -0.0000
     65 C          63.0701   76.4677   10.7586 C.ar    1  UNL1       -0.0003
     66 C          62.5419   77.8543   10.9786 C.ar    1  UNL1       -0.0026
@<TRIPOS>BOND
     1    18    19    2
     2    19    17    1
     3    17     1    1
     4     1     2    1
     5     2     3    1
     6     3     4    2
     7     3     5   am
     8     5     6    1
     9     6    20    1
    10    20    21    1
    11    21    22   ar
    12    22    23   ar
    13    23    24   ar
    14    24    25    1
    15    24    26   ar
    16    26    27   ar
    17     6     7    1
    18     7     8    2
    19     7     9   am
    20     9    29    1
    21    29    30    1
    22    30    31   ar
    23    31    32   ar
    24    32    33   ar
    25    33    34   ar
    26    34    35   ar
    27    35    40    1
    28    40    41   ar
    29    41    42   ar
    30    42    43   ar
    31    43    46    1
    32    46    47   am
    33    47    48    2
    34    47    49   am
    35    49    50    1
    36    50    51    1
    37    51    52    1
    38    52    56    1
    39    56    57    1
    40    56    58    2
    41    56    59    2
    42    52    53    1
    43    53    54    1
    44    43    44   ar
    45    44    45   ar
    46    35    36   ar
    47    36    37   ar
    48    37    38    1
    49    37    39   ar
    50     9    10    1
    51    11    10    1
    52    11    12    1
    53    12    13   am
    54    13    14    2
    55    13    15   am
    56    15    60    1
    57    60    61    1
    58    61    62   ar
    59    62    63   ar
    60    63    64   ar
    61    64    65   ar
    62    65    66   ar
    63    12     1    1
    64    66    61   ar
    65    11     5    1
    66    27    21   ar
    67    39    30   ar
    68    39    34   ar
    69    45    40   ar
    70    54    49    1
    71    25    28    1
    72    46    55    1
    73    15    16    1
