@<TRIPOS>MOLECULE
*****
 33 35 0 0 0
SMALL
GASTEIGER

@<TRIPOS>ATOM
      1 C          63.3702   89.9423   12.7690 C.ar    1  UNL1        0.1544
      2 S          63.9323   91.1875   12.1497 S.2     1  UNL1       -0.0714
      3 C          65.0238   91.6977   13.0433 C.ar    1  UNL1        0.0086
      4 C          65.1363   90.7677   14.2148 C.ar    1  UNL1        0.0040
      5 C          64.1143   89.6828   14.0453 C.ar    1  UNL1        0.0252
      6 C          63.8780   88.5392   14.9868 C.ar    1  UNL1        0.0015
      7 C          63.1634   88.7719   16.2849 C.ar    1  UNL1        0.0000
      8 C          62.9271   87.6283   17.2264 C.ar    1  UNL1       -0.0003
      9 C          63.4054   86.2521   16.8697 C.ar    1  UNL1       -0.0024
     10 C          64.1200   86.0194   15.5716 C.ar    1  UNL1        0.0004
     11 C          64.3563   87.1630   14.6301 C.ar    1  UNL1       -0.0023
     12 C          64.5984   84.6432   15.2149 C.3     1  UNL1        0.1343
     13 N          63.7576   83.7599   14.3415 N.ar    1  UNL1       -0.3036
     14 C          63.9138   83.5782   12.8607 C.ar    1  UNL1        0.0983
     15 C          62.8657   82.6092   12.3995 C.ar    1  UNL1        0.1193
     16 N          62.0618   82.1920   13.5953 N.ar    1  UNL1       -0.2223
     17 C          62.6130   82.9031   14.7954 C.ar    1  UNL1        0.1789
     18 S          62.2591   89.1039   12.2101 S.O2    1  UNL1        0.0838
     19 O          61.2544   89.9618   12.9203 O.2     1  UNL1       -0.1493
     20 O          63.2639   88.2459   11.4998 O.2     1  UNL1       -0.1493
     21 C          60.6211   88.5400   10.2739 C.2     1  UNL1        0.4205
     22 O          61.2051   89.6532    9.4555 O.2     1  UNL1       -0.2248
     23 N          61.1481   88.2654   11.6511 N.am    1  UNL1       -0.1502
     24 H          60.7647   87.5347   12.1882 H       1  UNL1        0.1800
     25 O          59.5100   87.7014    9.7149 O.3     1  UNL1       -0.4337
     26 C          59.5796   87.2112    8.2990 C.3     1  UNL1        0.2102
     27 C          60.5427   86.1225    7.9287 C.3     1  UNL1        0.0475
     28 C          62.9498   85.1562    8.0767 C.3     1  UNL1        0.0001
     29 C          61.8517   86.0013    8.6510 C.3     1  UNL1        0.0038
     30 C          65.8566   92.9226   12.8068 C.3     1  UNL1        0.0330
     31 C          66.2698   93.2910   11.4127 C.3     1  UNL1        0.0049
     32 C          67.2426   92.4275   10.6658 C.3     1  UNL1        0.0004
     33 C          65.7100   94.5231   10.7654 C.3     1  UNL1        0.0004
@<TRIPOS>BOND
     1    28    29    1
     2    29    27    1
     3    27    26    1
     4    26    25    1
     5    25    21    1
     6    21    22    2
     7    21    23   am
     8    23    18    1
     9    18    19    2
    10    18    20    2
    11    18     1    1
    12     1     2   ar
    13     2     3   ar
    14     3    30    1
    15    30    31    1
    16    31    32    1
    17    31    33    1
    18     3     4   ar
    19     4     5   ar
    20     5     6    1
    21     6     7   ar
    22     7     8   ar
    23     8     9   ar
    24     9    10   ar
    25    10    12    1
    26    12    13    1
    27    13    14   ar
    28    14    15   ar
    29    15    16   ar
    30    16    17   ar
    31    10    11   ar
    32     5     1   ar
    33    11     6   ar
    34    17    13   ar
    35    23    24    1
@<TRIPOS>MOLECULE
*****
 33 35 0 0 0
SMALL
GASTEIGER

@<TRIPOS>ATOM
      1 C          64.0632   90.8179   12.7665 C.ar    1  UNL1        0.1544
      2 S          65.0794   91.9203   12.8128 S.2     1  UNL1       -0.0714
      3 C          65.0626   92.6222   11.4873 C.ar    1  UNL1        0.0086
      4 C          64.0360   91.9536   10.6217 C.ar    1  UNL1        0.0040
      5 C          63.4183   90.8385   11.4124 C.ar    1  UNL1        0.0252
      6 C          62.3443   89.9075   10.9329 C.ar    1  UNL1        0.0015
      7 C          60.9056   90.3272   10.9942 C.ar    1  UNL1        0.0000
      8 C          59.8317   89.3962   10.5148 C.ar    1  UNL1       -0.0003
      9 C          60.1965   88.0455    9.9741 C.ar    1  UNL1       -0.0024
     10 C          61.6353   87.6258    9.9128 C.ar    1  UNL1        0.0004
     11 C          62.7092   88.5568   10.3922 C.ar    1  UNL1       -0.0023
     12 C          62.0001   86.2750    9.3720 C.3     1  UNL1        0.1343
     13 N          62.5739   85.2319   10.2845 N.ar    1  UNL1       -0.3036
     14 C          63.5024   84.1241    9.8835 C.ar    1  UNL1        0.0983
     15 C          63.8223   83.3209   11.1094 C.ar    1  UNL1        0.1193
     16 N          63.0915   83.9323   12.2679 N.ar    1  UNL1       -0.2223
     17 C          62.3200   85.1133   11.7581 C.ar    1  UNL1        0.1789
     18 S          63.7473   89.8627   13.8790 S.O2    1  UNL1        0.0838
     19 O          62.2856   89.9777   13.5628 O.2     1  UNL1       -0.1493
     20 O          65.2091   89.7477   14.1953 O.2     1  UNL1       -0.1493
     21 C          63.2621   89.4170   16.3922 C.2     1  UNL1        0.4205
     22 O          63.4084   90.8817   16.6803 O.2     1  UNL1       -0.2248
     23 N          63.4315   88.9075   14.9916 N.am    1  UNL1       -0.1502
     24 H          63.3355   87.9461   14.8025 H       1  UNL1        0.1800
     25 O          62.9462   88.4616   17.5047 O.3     1  UNL1       -0.4337
     26 C          62.4141   87.0947   17.1911 C.3     1  UNL1        0.2102
     27 C          63.3577   85.9378   17.0454 C.3     1  UNL1        0.0475
     28 C          64.8406   85.7016   14.9253 C.3     1  UNL1        0.0001
     29 C          63.6048   85.3372   15.6933 C.3     1  UNL1        0.0038
     30 C          65.9216   93.7880   11.0960 C.3     1  UNL1        0.0330
     31 C          67.0029   93.6123   10.0713 C.3     1  UNL1        0.0049
     32 C          67.7938   92.3385   10.0263 C.3     1  UNL1        0.0004
     33 C          67.2934   94.7105    9.0917 C.3     1  UNL1        0.0004
@<TRIPOS>BOND
     1    28    29    1
     2    29    27    1
     3    27    26    1
     4    26    25    1
     5    25    21    1
     6    21    22    2
     7    21    23   am
     8    23    18    1
     9    18    19    2
    10    18    20    2
    11    18     1    1
    12     1     2   ar
    13     2     3   ar
    14     3    30    1
    15    30    31    1
    16    31    32    1
    17    31    33    1
    18     3     4   ar
    19     4     5   ar
    20     5     6    1
    21     6     7   ar
    22     7     8   ar
    23     8     9   ar
    24     9    10   ar
    25    10    12    1
    26    12    13    1
    27    13    14   ar
    28    14    15   ar
    29    15    16   ar
    30    16    17   ar
    31    10    11   ar
    32     5     1   ar
    33    11     6   ar
    34    17    13   ar
    35    23    24    1
@<TRIPOS>MOLECULE
*****
 33 35 0 0 0
SMALL
GASTEIGER

@<TRIPOS>ATOM
      1 C          63.5383   89.8434   13.1173 C.ar    1  UNL1        0.1544
      2 S          64.1659   91.1166   12.6325 S.2     1  UNL1       -0.0714
      3 C          65.2083   91.5284   13.6294 C.ar    1  UNL1        0.0086
      4 C          65.2249   90.5098   14.7303 C.ar    1  UNL1        0.0040
      5 C          64.1927   89.4683   14.4138 C.ar    1  UNL1        0.0252
      6 C          63.8715   88.2634   15.2475 C.ar    1  UNL1        0.0015
      7 C          63.1077   88.4200   16.5290 C.ar    1  UNL1        0.0000
      8 C          62.7865   87.2151   17.3626 C.ar    1  UNL1       -0.0003
      9 C          63.2290   85.8536   16.9148 C.ar    1  UNL1       -0.0024
     10 C          63.9927   85.6970   15.6333 C.ar    1  UNL1        0.0004
     11 C          64.3140   86.9019   14.7997 C.ar    1  UNL1       -0.0023
     12 C          64.4352   84.3355   15.1855 C.3     1  UNL1        0.1343
     13 N          63.6647   83.6079   14.1240 N.ar    1  UNL1       -0.3036
     14 C          63.6506   83.9394   12.6612 C.ar    1  UNL1        0.0983
     15 C          62.7501   82.9574   11.9720 C.ar    1  UNL1        0.1193
     16 N          62.2077   82.0190   13.0090 N.ar    1  UNL1       -0.2223
     17 C          62.7729   82.4210   14.3390 C.ar    1  UNL1        0.1789
     18 S          62.4477   89.0794   12.4267 S.O2    1  UNL1        0.0838
     19 O          63.4661   88.1305   11.8678 O.2     1  UNL1       -0.1493
     20 O          61.4291   90.0283   12.9857 O.2     1  UNL1       -0.1493
     21 C          60.9901   88.6466   10.3200 C.2     1  UNL1        0.4205
     22 O          61.7140   89.7417    9.5942 O.2     1  UNL1       -0.2248
     23 N          61.3570   88.3155   11.7362 N.am    1  UNL1       -0.1502
     24 H          60.8819   87.5967   12.2126 H       1  UNL1        0.1800
     25 O          59.8994   87.8826    9.6295 O.3     1  UNL1       -0.4337
     26 C          59.7115   88.0177    8.1475 C.3     1  UNL1        0.2102
     27 C          59.2283   89.3139    7.5677 C.3     1  UNL1        0.0475
     28 C          58.8169   90.8404    5.5061 C.3     1  UNL1        0.0001
     29 C          59.3595   89.5725    6.0960 C.3     1  UNL1        0.0038
     30 C          66.0809   92.7453   13.5410 C.3     1  UNL1        0.0330
     31 C          67.4505   92.7322   14.1526 C.3     1  UNL1        0.0049
     32 C          67.7159   93.4990   15.4141 C.3     1  UNL1        0.0004
     33 C          68.5547   91.9522   13.5026 C.3     1  UNL1        0.0004
@<TRIPOS>BOND
     1    28    29    1
     2    29    27    1
     3    27    26    1
     4    26    25    1
     5    25    21    1
     6    21    22    2
     7    21    23   am
     8    23    18    1
     9    18    19    2
    10    18    20    2
    11    18     1    1
    12     1     2   ar
    13     2     3   ar
    14     3    30    1
    15    30    31    1
    16    31    32    1
    17    31    33    1
    18     3     4   ar
    19     4     5   ar
    20     5     6    1
    21     6     7   ar
    22     7     8   ar
    23     8     9   ar
    24     9    10   ar
    25    10    12    1
    26    12    13    1
    27    13    14   ar
    28    14    15   ar
    29    15    16   ar
    30    16    17   ar
    31    10    11   ar
    32     5     1   ar
    33    11     6   ar
    34    17    13   ar
    35    23    24    1
@<TRIPOS>MOLECULE
*****
 33 35 0 0 0
SMALL
GASTEIGER

@<TRIPOS>ATOM
      1 C          60.9880   88.5424    9.7743 C.ar    1  UNL1        0.1544
      2 S          60.0609   89.3752    8.9394 S.2     1  UNL1       -0.0714
      3 C          59.5862   88.5323    7.7930 C.ar    1  UNL1        0.0086
      4 C          60.2200   87.1787    7.9194 C.ar    1  UNL1        0.0040
      5 C          61.0864   87.1849    9.1438 C.ar    1  UNL1        0.0252
      6 C          61.9070   86.0354    9.6492 C.ar    1  UNL1        0.0015
      7 C          62.8321   85.3082    8.7190 C.ar    1  UNL1        0.0000
      8 C          63.6527   84.1588    9.2243 C.ar    1  UNL1       -0.0003
      9 C          63.5482   83.7366   10.6598 C.ar    1  UNL1       -0.0024
     10 C          62.6231   84.4638   11.5901 C.ar    1  UNL1        0.0004
     11 C          61.8025   85.6132   11.0847 C.ar    1  UNL1       -0.0023
     12 C          62.5185   84.0415   13.0256 C.3     1  UNL1        0.1343
     13 N          62.7436   82.6076   13.4039 N.ar    1  UNL1       -0.3036
     14 C          61.7491   81.4930   13.2670 C.ar    1  UNL1        0.0983
     15 C          62.3936   80.2330   13.7640 C.ar    1  UNL1        0.1193
     16 N          63.7864   80.5688   14.2081 N.ar    1  UNL1       -0.2223
     17 C          64.0028   82.0363   13.9856 C.ar    1  UNL1        0.1789
     18 S          61.6930   88.9889   11.0207 S.O2    1  UNL1        0.0838
     19 O          62.9641   89.1561   10.2420 O.2     1  UNL1       -0.1493
     20 O          60.4219   88.8217   11.7995 O.2     1  UNL1       -0.1493
     21 C          63.1205   90.7496   12.2904 C.2     1  UNL1        0.4205
     22 O          63.1382   91.6175   11.0671 O.2     1  UNL1       -0.2248
     23 N          62.3980   89.4353   12.2672 N.am    1  UNL1       -0.1502
     24 H          62.3864   88.8657   13.0701 H       1  UNL1        0.1800
     25 O          63.8255   91.1960   13.5370 O.3     1  UNL1       -0.4337
     26 C          64.7556   90.2591   14.2491 C.3     1  UNL1        0.2102
     27 C          64.2052   89.0853   15.0035 C.3     1  UNL1        0.0475
     28 C          63.0230   88.2243   17.1508 C.3     1  UNL1        0.0001
     29 C          63.2429   89.3041   16.1331 C.3     1  UNL1        0.0038
     30 C          58.6433   88.9668    6.7103 C.3     1  UNL1        0.0330
     31 C          58.9675   90.1665    5.8704 C.3     1  UNL1        0.0049
     32 C          60.3918   90.4645    5.5064 C.3     1  UNL1        0.0004
     33 C          57.8672   91.0682    5.3943 C.3     1  UNL1        0.0004
@<TRIPOS>BOND
     1    28    29    1
     2    29    27    1
     3    27    26    1
     4    26    25    1
     5    25    21    1
     6    21    22    2
     7    21    23   am
     8    23    18    1
     9    18    19    2
    10    18    20    2
    11    18     1    1
    12     1     2   ar
    13     2     3   ar
    14     3    30    1
    15    30    31    1
    16    31    32    1
    17    31    33    1
    18     3     4   ar
    19     4     5   ar
    20     5     6    1
    21     6     7   ar
    22     7     8   ar
    23     8     9   ar
    24     9    10   ar
    25    10    12    1
    26    12    13    1
    27    13    14   ar
    28    14    15   ar
    29    15    16   ar
    30    16    17   ar
    31    10    11   ar
    32     5     1   ar
    33    11     6   ar
    34    17    13   ar
    35    23    24    1
@<TRIPOS>MOLECULE
*****
 33 35 0 0 0
SMALL
GASTEIGER

@<TRIPOS>ATOM
      1 C          61.0021   88.4257    9.7994 C.ar    1  UNL1        0.1544
      2 S          60.0625   89.2634    8.9837 S.2     1  UNL1       -0.0714
      3 C          59.6027   88.4411    7.8164 C.ar    1  UNL1        0.0086
      4 C          60.2581   87.0952    7.9108 C.ar    1  UNL1        0.0040
      5 C          61.1230   87.0857    9.1364 C.ar    1  UNL1        0.0252
      6 C          61.9615   85.9376    9.6149 C.ar    1  UNL1        0.0015
      7 C          62.9319   85.2772    8.6810 C.ar    1  UNL1        0.0000
      8 C          63.7703   84.1292    9.1595 C.ar    1  UNL1       -0.0003
      9 C          63.6384   83.6416   10.5718 C.ar    1  UNL1       -0.0024
     10 C          62.6681   84.3020   11.5057 C.ar    1  UNL1        0.0004
     11 C          61.8296   85.4500   11.0273 C.ar    1  UNL1       -0.0023
     12 C          62.5362   83.8144   12.9181 C.3     1  UNL1        0.1343
     13 N          63.0108   84.6706   14.0546 N.ar    1  UNL1       -0.3036
     14 C          62.6815   84.4732   15.5046 C.ar    1  UNL1        0.0983
     15 C          63.3652   85.5553   16.2868 C.ar    1  UNL1        0.1193
     16 N          64.1172   86.4214   15.3201 N.ar    1  UNL1       -0.2223
     17 C          63.8981   85.8747   13.9406 C.ar    1  UNL1        0.1789
     18 S          61.6984   88.8531   11.0574 S.O2    1  UNL1        0.0838
     19 O          62.9640   89.0718   10.2826 O.2     1  UNL1       -0.1493
     20 O          60.4328   88.6343   11.8323 O.2     1  UNL1       -0.1493
     21 C          63.0830   90.6117   12.3765 C.2     1  UNL1        0.4205
     22 O          63.0749   91.5159   11.1796 O.2     1  UNL1       -0.2248
     23 N          62.3947   89.2804   12.3154 N.am    1  UNL1       -0.1502
     24 H          62.4000   88.6870   13.1009 H       1  UNL1        0.1800
     25 O          63.7793   91.0390   13.6346 O.3     1  UNL1       -0.4337
     26 C          65.1618   91.6169   13.5674 C.3     1  UNL1        0.2102
     27 C          66.1943   91.2111   14.5769 C.3     1  UNL1        0.0475
     28 C          68.0555   92.2977   16.0278 C.3     1  UNL1        0.0001
     29 C          67.4824   91.9728   14.6803 C.3     1  UNL1        0.0038
     30 C          58.6541   88.8865    6.7433 C.3     1  UNL1        0.0330
     31 C          58.9723   90.0967    5.9160 C.3     1  UNL1        0.0049
     32 C          60.3946   90.4027    5.5508 C.3     1  UNL1        0.0004
     33 C          57.8680   91.0007    5.4538 C.3     1  UNL1        0.0004
@<TRIPOS>BOND
     1    28    29    1
     2    29    27    1
     3    27    26    1
     4    26    25    1
     5    25    21    1
     6    21    22    2
     7    21    23   am
     8    23    18    1
     9    18    19    2
    10    18    20    2
    11    18     1    1
    12     1     2   ar
    13     2     3   ar
    14     3    30    1
    15    30    31    1
    16    31    32    1
    17    31    33    1
    18     3     4   ar
    19     4     5   ar
    20     5     6    1
    21     6     7   ar
    22     7     8   ar
    23     8     9   ar
    24     9    10   ar
    25    10    12    1
    26    12    13    1
    27    13    14   ar
    28    14    15   ar
    29    15    16   ar
    30    16    17   ar
    31    10    11   ar
    32     5     1   ar
    33    11     6   ar
    34    17    13   ar
    35    23    24    1
@<TRIPOS>MOLECULE
*****
 33 35 0 0 0
SMALL
GASTEIGER

@<TRIPOS>ATOM
      1 C          60.8860   87.7142    9.2381 C.ar    1  UNL1        0.1544
      2 S          59.9978   87.5755    8.0374 S.2     1  UNL1       -0.0714
      3 C          59.6095   88.9525    7.5865 C.ar    1  UNL1        0.0086
      4 C          60.2578   89.9422    8.5086 C.ar    1  UNL1        0.0040
      5 C          61.0467   89.1769    9.5293 C.ar    1  UNL1        0.0252
      6 C          61.8546   89.7702   10.6454 C.ar    1  UNL1        0.0015
      7 C          61.4345   89.5590   12.0697 C.ar    1  UNL1        0.0000
      8 C          62.2423   90.1523   13.1857 C.ar    1  UNL1       -0.0003
      9 C          63.4702   90.9567   12.8773 C.ar    1  UNL1       -0.0024
     10 C          63.8903   91.1678   11.4529 C.ar    1  UNL1        0.0004
     11 C          63.0825   90.5746   10.3369 C.ar    1  UNL1       -0.0023
     12 C          65.1183   91.9722   11.1445 C.3     1  UNL1        0.1343
     13 N          65.9310   92.5581   12.2608 N.ar    1  UNL1       -0.3036
     14 C          66.7353   91.7866   13.2648 C.ar    1  UNL1        0.0983
     15 C          67.3836   92.7700   14.1936 C.ar    1  UNL1        0.1193
     16 N          66.9801   94.1493   13.7636 N.ar    1  UNL1       -0.2223
     17 C          66.0824   94.0183   12.5691 C.ar    1  UNL1        0.1789
     18 S          61.5049   86.5880   10.0117 S.O2    1  UNL1        0.0838
     19 O          62.5844   86.4703    8.9770 O.2     1  UNL1       -0.1493
     20 O          60.4254   86.7057   11.0466 O.2     1  UNL1       -0.1493
     21 C          62.9673   85.7543   11.9907 C.2     1  UNL1        0.4205
     22 O          63.1921   87.1732   12.4224 O.2     1  UNL1       -0.2248
     23 N          62.1237   85.4618   10.7854 N.am    1  UNL1       -0.1502
     24 H          61.9762   84.5305   10.5021 H       1  UNL1        0.1800
     25 O          63.5861   84.6280   12.7645 O.3     1  UNL1       -0.4337
     26 C          63.8195   83.3025   12.1022 C.3     1  UNL1        0.2102
     27 C          62.7019   82.3072   12.0014 C.3     1  UNL1        0.0475
     28 C          61.5339   81.2467   14.0656 C.3     1  UNL1        0.0001
     29 C          62.5930   81.1974   13.0046 C.3     1  UNL1        0.0038
     30 C          58.7277   89.2819    6.4186 C.3     1  UNL1        0.0330
     31 C          59.0069   90.4993    5.5879 C.3     1  UNL1        0.0049
     32 C          60.4118   90.8142    5.1673 C.3     1  UNL1        0.0004
     33 C          57.8810   91.4018    5.1778 C.3     1  UNL1        0.0004
@<TRIPOS>BOND
     1    28    29    1
     2    29    27    1
     3    27    26    1
     4    26    25    1
     5    25    21    1
     6    21    22    2
     7    21    23   am
     8    23    18    1
     9    18    19    2
    10    18    20    2
    11    18     1    1
    12     1     2   ar
    13     2     3   ar
    14     3    30    1
    15    30    31    1
    16    31    32    1
    17    31    33    1
    18     3     4   ar
    19     4     5   ar
    20     5     6    1
    21     6     7   ar
    22     7     8   ar
    23     8     9   ar
    24     9    10   ar
    25    10    12    1
    26    12    13    1
    27    13    14   ar
    28    14    15   ar
    29    15    16   ar
    30    16    17   ar
    31    10    11   ar
    32     5     1   ar
    33    11     6   ar
    34    17    13   ar
    35    23    24    1
@<TRIPOS>MOLECULE
*****
 33 35 0 0 0
SMALL
GASTEIGER

@<TRIPOS>ATOM
      1 C          61.2641   87.6592    9.4724 C.ar    1  UNL1        0.1544
      2 S          60.2224   87.4716    8.4095 S.2     1  UNL1       -0.0714
      3 C          59.7824   88.8290    7.9470 C.ar    1  UNL1        0.0086
      4 C          60.5522   89.8555    8.7240 C.ar    1  UNL1        0.0040
      5 C          61.4679   89.1326    9.6667 C.ar    1  UNL1        0.0252
      6 C          62.4203   89.7709   10.6340 C.ar    1  UNL1        0.0015
      7 C          62.6599   89.1435   11.9752 C.ar    1  UNL1        0.0000
      8 C          63.6122   89.7818   12.9424 C.ar    1  UNL1       -0.0003
      9 C          64.3249   91.0476   12.5685 C.ar    1  UNL1       -0.0024
     10 C          64.0853   91.6751   11.2273 C.ar    1  UNL1        0.0004
     11 C          63.1330   91.0367   10.2601 C.ar    1  UNL1       -0.0023
     12 C          64.7980   92.9408   10.8533 C.3     1  UNL1        0.1343
     13 N          66.2512   92.9022   10.4839 N.ar    1  UNL1       -0.3036
     14 C          66.8919   93.6420    9.3471 C.ar    1  UNL1        0.0983
     15 C          68.3557   93.3141    9.3470 C.ar    1  UNL1        0.1193
     16 N          68.6196   92.3716   10.4838 N.ar    1  UNL1       -0.2223
     17 C          67.3190   92.1170   11.1863 C.ar    1  UNL1        0.1789
     18 S          61.9769   86.5655   10.2112 S.O2    1  UNL1        0.0838
     19 O          60.8919   86.5580   11.2469 O.2     1  UNL1       -0.1493
     20 O          63.0619   86.5730    9.1754 O.2     1  UNL1       -0.1493
     21 C          63.2672   84.3106   10.1963 C.2     1  UNL1        0.4205
     22 O          63.1318   84.2429    8.7039 O.2     1  UNL1       -0.2248
     23 N          62.6897   85.4718   10.9498 N.am    1  UNL1       -0.1502
     24 H          62.7785   85.5162   11.9293 H       1  UNL1        0.1800
     25 O          63.9800   83.2168   10.9351 O.3     1  UNL1       -0.4337
     26 C          63.2236   82.0060   11.3951 C.3     1  UNL1        0.2102
     27 C          63.3682   81.5233   12.8079 C.3     1  UNL1        0.0475
     28 C          61.1503   81.0131   14.0611 C.3     1  UNL1        0.0001
     29 C          62.3897   80.5328   13.3660 C.3     1  UNL1        0.0038
     30 C          58.7533   89.1105    6.8926 C.3     1  UNL1        0.0330
     31 C          58.9767   90.2148    5.9024 C.3     1  UNL1        0.0049
     32 C          57.8183   91.0393    5.4244 C.3     1  UNL1        0.0004
     33 C          60.3585   90.4948    5.3901 C.3     1  UNL1        0.0004
@<TRIPOS>BOND
     1    28    29    1
     2    29    27    1
     3    27    26    1
     4    26    25    1
     5    25    21    1
     6    21    22    2
     7    21    23   am
     8    23    18    1
     9    18    19    2
    10    18    20    2
    11    18     1    1
    12     1     2   ar
    13     2     3   ar
    14     3    30    1
    15    30    31    1
    16    31    32    1
    17    31    33    1
    18     3     4   ar
    19     4     5   ar
    20     5     6    1
    21     6     7   ar
    22     7     8   ar
    23     8     9   ar
    24     9    10   ar
    25    10    12    1
    26    12    13    1
    27    13    14   ar
    28    14    15   ar
    29    15    16   ar
    30    16    17   ar
    31    10    11   ar
    32     5     1   ar
    33    11     6   ar
    34    17    13   ar
    35    23    24    1
@<TRIPOS>MOLECULE
*****
 33 35 0 0 0
SMALL
GASTEIGER

@<TRIPOS>ATOM
      1 C          61.0691   88.0910    9.9559 C.ar    1  UNL1        0.1544
      2 S          60.0635   87.7449    8.8981 S.2     1  UNL1       -0.0714
      3 C          59.8479   88.9616    8.0476 C.ar    1  UNL1        0.0086
      4 C          60.7202   90.0596    8.5799 C.ar    1  UNL1        0.0040
      5 C          61.4750   89.5216    9.7593 C.ar    1  UNL1        0.0252
      6 C          62.4623   90.2809   10.5952 C.ar    1  UNL1        0.0015
      7 C          63.4079   91.2476    9.9462 C.ar    1  UNL1        0.0000
      8 C          64.3951   92.0068   10.7821 C.ar    1  UNL1       -0.0003
      9 C          64.4368   91.7994   12.2671 C.ar    1  UNL1       -0.0024
     10 C          63.4912   90.8327   12.9162 C.ar    1  UNL1        0.0004
     11 C          62.5039   90.0735   12.0802 C.ar    1  UNL1       -0.0023
     12 C          63.5328   90.6253   14.4012 C.3     1  UNL1        0.1343
     13 N          63.6368   89.2380   14.9621 N.ar    1  UNL1       -0.3036
     14 C          64.3219   88.0729   14.3114 C.ar    1  UNL1        0.0983
     15 C          64.1824   86.8870   15.2194 C.ar    1  UNL1        0.1193
     16 N          63.4110   87.3192   16.4311 N.ar    1  UNL1       -0.2223
     17 C          63.0738   88.7721   16.2721 C.ar    1  UNL1        0.1789
     18 S          61.5792   87.1685   11.0231 S.O2    1  UNL1        0.0838
     19 O          62.8297   86.9392   10.2271 O.2     1  UNL1       -0.1493
     20 O          60.3286   87.3978   11.8191 O.2     1  UNL1       -0.1493
     21 C          62.4366   84.8267   11.7515 C.2     1  UNL1        0.4205
     22 O          62.2740   84.3297   10.3456 O.2     1  UNL1       -0.2248
     23 N          62.0892   86.2460   12.0902 N.am    1  UNL1       -0.1502
     24 H          62.1959   86.5721   13.0130 H       1  UNL1        0.1800
     25 O          62.9466   83.9042   12.8188 O.3     1  UNL1       -0.4337
     26 C          63.8699   82.7783   12.4585 C.3     1  UNL1        0.2102
     27 C          63.7225   81.4439   13.1276 C.3     1  UNL1        0.0475
     28 C          61.3270   81.1038   14.0742 C.3     1  UNL1        0.0001
     29 C          62.4028   80.7315   13.0975 C.3     1  UNL1        0.0038
     30 C          58.9224   89.0625    6.8715 C.3     1  UNL1        0.0330
     31 C          59.0565   90.2038    5.9074 C.3     1  UNL1        0.0049
     32 C          60.4027   90.5612    5.3508 C.3     1  UNL1        0.0004
     33 C          57.8442   90.9876    5.4999 C.3     1  UNL1        0.0004
@<TRIPOS>BOND
     1    28    29    1
     2    29    27    1
     3    27    26    1
     4    26    25    1
     5    25    21    1
     6    21    22    2
     7    21    23   am
     8    23    18    1
     9    18    19    2
    10    18    20    2
    11    18     1    1
    12     1     2   ar
    13     2     3   ar
    14     3    30    1
    15    30    31    1
    16    31    32    1
    17    31    33    1
    18     3     4   ar
    19     4     5   ar
    20     5     6    1
    21     6     7   ar
    22     7     8   ar
    23     8     9   ar
    24     9    10   ar
    25    10    12    1
    26    12    13    1
    27    13    14   ar
    28    14    15   ar
    29    15    16   ar
    30    16    17   ar
    31    10    11   ar
    32     5     1   ar
    33    11     6   ar
    34    17    13   ar
    35    23    24    1
@<TRIPOS>MOLECULE
*****
 33 35 0 0 0
SMALL
GASTEIGER

@<TRIPOS>ATOM
      1 C          62.4168   89.1804   12.0123 C.ar    1  UNL1        0.1544
      2 S          61.6070   89.6155   10.8269 S.2     1  UNL1       -0.0714
      3 C          61.3370   88.4065    9.9810 C.ar    1  UNL1        0.0086
      4 C          61.9799   87.2243   10.6435 C.ar    1  UNL1        0.0040
      5 C          62.6472   87.7026   11.8989 C.ar    1  UNL1        0.0252
      6 C          63.4109   86.8522   12.8704 C.ar    1  UNL1        0.0015
      7 C          64.0455   87.4777   14.0771 C.ar    1  UNL1        0.0000
      8 C          64.8092   86.6274   15.0485 C.ar    1  UNL1       -0.0003
      9 C          64.9383   85.1516   14.8133 C.ar    1  UNL1       -0.0024
     10 C          64.3037   84.5261   13.6066 C.ar    1  UNL1        0.0004
     11 C          63.5400   85.3764   12.6352 C.ar    1  UNL1       -0.0023
     12 C          64.4328   83.0503   13.3714 C.3     1  UNL1        0.1343
     13 N          63.2608   82.1465   13.6156 N.ar    1  UNL1       -0.3036
     14 C          63.0704   80.7745   13.0400 C.ar    1  UNL1        0.0983
     15 C          61.7653   80.2361   13.5470 C.ar    1  UNL1        0.1193
     16 N          61.1491   81.2755   14.4360 N.ar    1  UNL1       -0.2223
     17 C          62.0734   82.4561   14.4784 C.ar    1  UNL1        0.1789
     18 S          62.9095   90.0675   13.1169 S.O2    1  UNL1        0.0838
     19 O          61.6013   89.9036   13.8322 O.2     1  UNL1       -0.1493
     20 O          64.2179   90.2314   12.4017 O.2     1  UNL1       -0.1493
     21 C          63.2316   90.5364   15.6519 C.2     1  UNL1        0.4205
     22 O          62.5681   89.2312   15.9778 O.2     1  UNL1       -0.2248
     23 N          63.4023   90.9545   14.2215 N.am    1  UNL1       -0.1502
     24 H          63.8378   91.8112   14.0077 H       1  UNL1        0.1800
     25 O          63.7245   91.4236   16.7566 O.3     1  UNL1       -0.4337
     26 C          64.7706   92.4611   16.4751 C.3     1  UNL1        0.2102
     27 C          66.0331   92.0788   15.7611 C.3     1  UNL1        0.0475
     28 C          68.3909   92.9720   15.1342 C.3     1  UNL1        0.0001
     29 C          67.3399   92.6929   16.1675 C.3     1  UNL1        0.0038
     30 C          60.5605   88.3838    8.6978 C.3     1  UNL1        0.0330
     31 C          60.1385   87.0746    8.0996 C.3     1  UNL1        0.0049
     32 C          58.6877   86.8064    7.8292 C.3     1  UNL1        0.0004
     33 C          61.1675   86.0335    7.7717 C.3     1  UNL1        0.0004
@<TRIPOS>BOND
     1    28    29    1
     2    29    27    1
     3    27    26    1
     4    26    25    1
     5    25    21    1
     6    21    22    2
     7    21    23   am
     8    23    18    1
     9    18    19    2
    10    18    20    2
    11    18     1    1
    12     1     2   ar
    13     2     3   ar
    14     3    30    1
    15    30    31    1
    16    31    32    1
    17    31    33    1
    18     3     4   ar
    19     4     5   ar
    20     5     6    1
    21     6     7   ar
    22     7     8   ar
    23     8     9   ar
    24     9    10   ar
    25    10    12    1
    26    12    13    1
    27    13    14   ar
    28    14    15   ar
    29    15    16   ar
    30    16    17   ar
    31    10    11   ar
    32     5     1   ar
    33    11     6   ar
    34    17    13   ar
    35    23    24    1
