@<TRIPOS>MOLECULE
*****
 37 41 0 0 0
SMALL
GASTEIGER

@<TRIPOS>ATOM
      1 N          60.8573   91.3132    5.2497 N.am    1  UNL1       -0.3004
      2 C          59.9092   90.4399    6.0169 C.2     1  UNL1        0.2482
      3 O          58.4998   90.2595    5.5362 O.2     1  UNL1       -0.2701
      4 H          61.7823   91.4316    5.5652 H       1  UNL1        0.1499
      5 C          60.3704   89.7471    7.2648 C.ar    1  UNL1        0.0823
      6 C          61.2735   90.4592    8.2278 C.ar    1  UNL1        0.0260
      7 C          61.7348   89.7664    9.4757 C.ar    1  UNL1        0.0843
      8 N          62.6378   90.4784   10.4387 N.2     1  UNL1       -0.2491
      9 C          63.0991   89.7856   11.6867 C.2     1  UNL1        0.0664
     10 C          64.0022   90.4977   12.6497 C.3     1  UNL1        0.0718
     11 C          64.4635   89.8049   13.8975 C.2     1  UNL1       -0.0198
     12 C          64.0216   88.4000   14.1824 C.2     1  UNL1       -0.0040
     13 C          63.1186   87.6879   13.2194 C.2     1  UNL1        0.0041
     14 C          62.6573   88.3807   11.9716 C.2     1  UNL1        0.0528
     15 C          61.7542   87.6687   11.0085 C.2     1  UNL1        0.1982
     16 O          61.3124   86.2638   11.2934 O.2     1  UNL1       -0.2865
     17 C          61.2930   88.3615    9.7606 C.ar    1  UNL1        0.0588
     18 C          60.3898   87.6494    8.7975 C.ar    1  UNL1        0.0345
     19 C          59.9286   88.3422    7.5497 C.ar    1  UNL1        0.1446
     20 F          59.0255   87.6302    6.5867 F       1  UNL1       -0.2040
     21 C          60.3961   92.0060    4.0019 C.3     1  UNL1        0.0775
     22 C          59.1014   92.3550    4.6742 C.3     1  UNL1        0.0243
     23 C          61.6907   91.6569    3.3295 C.3     1  UNL1        0.0243
     24 C          59.0123   94.0845    0.2582 C.ar    1  UNL1        0.1318
     25 C          58.8405   92.6011    0.3996 C.ar    1  UNL1        0.0341
     26 C          59.3018   91.9082    1.6475 C.ar    1  UNL1        0.0017
     27 C          59.9348   92.6988    2.7540 C.ar    1  UNL1        0.0130
     28 C          60.1066   94.1822    2.6125 C.ar    1  UNL1        0.0975
     29 N          59.6453   94.8750    1.3647 N.ar    1  UNL1       -0.2294
     30 N          57.6287   96.1631   -3.4854 N.3     1  UNL1       -0.2698
     31 C          56.6241   95.6660   -2.4886 C.3     1  UNL1        0.0939
     32 C          57.0853   94.9732   -1.2407 C.3     1  UNL1        0.1095
     33 N          58.5511   94.7774   -0.9897 N.pl3   1  UNL1       -0.2904
     34 C          59.5557   95.2744   -1.9866 C.3     1  UNL1        0.1095
     35 C          59.0945   95.9673   -3.2344 C.3     1  UNL1        0.0939
     36 C          55.7337   96.7530   -5.1621 C.3     1  UNL1        0.0188
     37 C          57.1674   96.8560   -4.7334 C.3     1  UNL1        0.0722
@<TRIPOS>BOND
     1    36    37    1
     2    37    30    1
     3    30    31    1
     4    31    32    1
     5    32    33    1
     6    33    24    1
     7    24    25   ar
     8    25    26   ar
     9    26    27   ar
    10    27    21    1
    11    21    22    1
    12    21    23    1
    13    21     1    1
    14     1     2   am
    15     2     3    2
    16     2     5    1
    17     5     6   ar
    18     6     7   ar
    19     7     8    1
    20     8     9    2
    21     9    10    1
    22    10    11    1
    23    11    12    2
    24    12    13    1
    25    13    14    2
    26    14    15    1
    27    15    16    2
    28    15    17    1
    29    17    18   ar
    30    18    19   ar
    31    19    20    1
    32    27    28   ar
    33    28    29   ar
    34    33    34    1
    35    34    35    1
    36    35    30    1
    37    29    24   ar
    38    19     5   ar
    39    17     7   ar
    40    14     9    1
    41     1     4    1
@<TRIPOS>MOLECULE
*****
 37 41 0 0 0
SMALL
GASTEIGER

@<TRIPOS>ATOM
      1 N          59.1294   93.2498    1.5309 N.am    1  UNL1       -0.3004
      2 C          59.6810   92.7642    0.2232 C.2     1  UNL1        0.2482
      3 O          60.4488   91.4769    0.1647 O.2     1  UNL1       -0.2701
      4 H          58.6255   94.0947    1.5693 H       1  UNL1        0.1499
      5 C          59.4649   93.5660   -1.0259 C.ar    1  UNL1        0.0823
      6 C          58.1107   93.6005   -1.6700 C.ar    1  UNL1        0.0260
      7 C          57.8945   94.4023   -2.9192 C.ar    1  UNL1        0.0843
      8 N          56.5403   94.4368   -3.5633 N.2     1  UNL1       -0.2491
      9 C          56.3241   95.2386   -4.8125 C.2     1  UNL1        0.0664
     10 C          54.9699   95.2731   -5.4566 C.3     1  UNL1        0.0718
     11 C          54.7538   96.0749   -6.7058 C.2     1  UNL1       -0.0198
     12 C          55.8919   96.8422   -7.3108 C.2     1  UNL1       -0.0040
     13 C          57.2461   96.8077   -6.6667 C.2     1  UNL1        0.0041
     14 C          57.4622   96.0059   -5.4176 C.2     1  UNL1        0.0528
     15 C          58.8164   95.9714   -4.7734 C.2     1  UNL1        0.1982
     16 O          59.9545   96.7387   -5.3785 O.2     1  UNL1       -0.2865
     17 C          59.0326   95.1696   -3.5243 C.ar    1  UNL1        0.0588
     18 C          60.3868   95.1351   -2.8801 C.ar    1  UNL1        0.0345
     19 C          60.6030   94.3333   -1.6310 C.ar    1  UNL1        0.1446
     20 F          61.9572   94.2988   -0.9869 F       1  UNL1       -0.2040
     21 C          59.3455   92.4480    2.7801 C.3     1  UNL1        0.0775
     22 C          57.8811   92.1267    2.8272 C.3     1  UNL1        0.0243
     23 C          60.8099   92.7693    2.7329 C.3     1  UNL1        0.0243
     24 C          59.9939   90.0426    6.5276 C.ar    1  UNL1        0.1318
     25 C          61.1707   90.5122    5.7248 C.ar    1  UNL1        0.0341
     26 C          60.9546   91.3140    4.4756 C.ar    1  UNL1        0.0017
     27 C          59.5617   91.6462    4.0292 C.ar    1  UNL1        0.0130
     28 C          58.3848   91.1766    4.8321 C.ar    1  UNL1        0.0975
     29 N          58.6009   90.3748    6.0812 N.ar    1  UNL1       -0.2294
     30 N          60.6421   87.6373   10.2751 N.3     1  UNL1       -0.2698
     31 C          60.4785   86.9416    8.9563 C.3     1  UNL1        0.0939
     32 C          60.2624   87.7433    7.7071 C.3     1  UNL1        0.1095
     33 N          60.2100   89.2408    7.7768 N.pl3   1  UNL1       -0.2904
     34 C          60.3736   89.9365    9.0956 C.3     1  UNL1        0.1095
     35 C          60.5897   89.1347   10.3447 C.3     1  UNL1        0.0939
     36 C          61.7845   85.6558   11.5075 C.3     1  UNL1        0.0188
     37 C          60.8582   86.8355   11.5243 C.3     1  UNL1        0.0722
@<TRIPOS>BOND
     1    36    37    1
     2    37    30    1
     3    30    31    1
     4    31    32    1
     5    32    33    1
     6    33    24    1
     7    24    25   ar
     8    25    26   ar
     9    26    27   ar
    10    27    21    1
    11    21    22    1
    12    21    23    1
    13    21     1    1
    14     1     2   am
    15     2     3    2
    16     2     5    1
    17     5     6   ar
    18     6     7   ar
    19     7     8    1
    20     8     9    2
    21     9    10    1
    22    10    11    1
    23    11    12    2
    24    12    13    1
    25    13    14    2
    26    14    15    1
    27    15    16    2
    28    15    17    1
    29    17    18   ar
    30    18    19   ar
    31    19    20    1
    32    27    28   ar
    33    28    29   ar
    34    33    34    1
    35    34    35    1
    36    35    30    1
    37    29    24   ar
    38    19     5   ar
    39    17     7   ar
    40    14     9    1
    41     1     4    1
@<TRIPOS>MOLECULE
*****
 37 41 0 0 0
SMALL
GASTEIGER

@<TRIPOS>ATOM
      1 N          71.6053   76.6482   12.8757 N.am    1  UNL1       -0.3004
      2 C          71.6504   75.1513   12.7887 C.2     1  UNL1        0.2482
      3 O          71.9490   74.4849   11.4785 O.2     1  UNL1       -0.2701
      4 H          71.4094   77.0856   13.7356 H       1  UNL1        0.1499
      5 C          71.3970   74.3211   14.0119 C.ar    1  UNL1        0.0823
      6 C          71.6112   72.8371   13.9687 C.ar    1  UNL1        0.0260
      7 C          71.3578   72.0067   15.1920 C.ar    1  UNL1        0.0843
      8 N          71.5720   70.5228   15.1487 N.2     1  UNL1       -0.2491
      9 C          71.3186   69.6924   16.3720 C.2     1  UNL1        0.0664
     10 C          71.5328   68.2084   16.3287 C.3     1  UNL1        0.0718
     11 C          71.2794   67.3781   17.5520 C.2     1  UNL1       -0.0198
     12 C          70.8117   68.0318   18.8185 C.2     1  UNL1       -0.0040
     13 C          70.5975   69.5158   18.8617 C.2     1  UNL1        0.0041
     14 C          70.8510   70.3461   17.6385 C.2     1  UNL1        0.0528
     15 C          70.6367   71.8301   17.6817 C.2     1  UNL1        0.1982
     16 O          70.1691   72.4838   18.9482 O.2     1  UNL1       -0.2865
     17 C          70.8902   72.6604   16.4585 C.ar    1  UNL1        0.0588
     18 C          70.6759   74.1444   16.5017 C.ar    1  UNL1        0.0345
     19 C          70.9294   74.9747   15.2784 C.ar    1  UNL1        0.1446
     20 F          70.7152   76.4587   15.3217 F       1  UNL1       -0.2040
     21 C          71.8587   77.4785   11.6524 C.3     1  UNL1        0.0775
     22 C          70.3815   77.6693   11.4759 C.3     1  UNL1        0.0243
     23 C          73.3360   77.2876   11.8289 C.3     1  UNL1        0.0243
     24 C          72.6191   79.9693    7.9826 C.ar    1  UNL1        0.1318
     25 C          71.4759   80.3057    8.8937 C.ar    1  UNL1        0.0341
     26 C          71.2225   79.4754   10.1170 C.ar    1  UNL1        0.0017
     27 C          72.1122   78.3088   10.4292 C.ar    1  UNL1        0.0130
     28 C          73.2554   77.9725    9.5180 C.ar    1  UNL1        0.0975
     29 N          73.5088   78.8027    8.2948 N.ar    1  UNL1       -0.2294
     30 N          73.3795   82.4601    4.3128 N.3     1  UNL1       -0.2698
     31 C          72.8753   83.1084    5.5679 C.3     1  UNL1        0.0939
     32 C          72.6218   82.2782    6.7912 C.3     1  UNL1        0.1095
     33 N          72.8725   80.7996    6.7593 N.pl3   1  UNL1       -0.2904
     34 C          73.3768   80.1513    5.5041 C.3     1  UNL1        0.1095
     35 C          73.6302   80.9816    4.2809 C.3     1  UNL1        0.0939
     36 C          73.6168   82.6512    1.7326 C.3     1  UNL1        0.0188
     37 C          73.6330   83.2904    3.0894 C.3     1  UNL1        0.0722
@<TRIPOS>BOND
     1    36    37    1
     2    37    30    1
     3    30    31    1
     4    31    32    1
     5    32    33    1
     6    33    24    1
     7    24    25   ar
     8    25    26   ar
     9    26    27   ar
    10    27    21    1
    11    21    22    1
    12    21    23    1
    13    21     1    1
    14     1     2   am
    15     2     3    2
    16     2     5    1
    17     5     6   ar
    18     6     7   ar
    19     7     8    1
    20     8     9    2
    21     9    10    1
    22    10    11    1
    23    11    12    2
    24    12    13    1
    25    13    14    2
    26    14    15    1
    27    15    16    2
    28    15    17    1
    29    17    18   ar
    30    18    19   ar
    31    19    20    1
    32    27    28   ar
    33    28    29   ar
    34    33    34    1
    35    34    35    1
    36    35    30    1
    37    29    24   ar
    38    19     5   ar
    39    17     7   ar
    40    14     9    1
    41     1     4    1
@<TRIPOS>MOLECULE
*****
 37 41 0 0 0
SMALL
GASTEIGER

@<TRIPOS>ATOM
      1 N          58.9935   91.5924    4.0522 N.am    1  UNL1       -0.3004
      2 C          59.9932   92.2072    3.1179 C.2     1  UNL1        0.2482
      3 O          61.4614   92.0258    3.3655 O.2     1  UNL1       -0.2701
      4 H          58.0298   91.7115    3.8897 H       1  UNL1        0.1499
      5 C          59.5246   93.0034    1.9362 C.ar    1  UNL1        0.0823
      6 C          58.7419   92.3356    0.8447 C.ar    1  UNL1        0.0260
      7 C          58.2733   93.1318   -0.3371 C.ar    1  UNL1        0.0843
      8 N          57.4906   92.4640   -1.4286 N.2     1  UNL1       -0.2491
      9 C          57.0220   93.2602   -2.6104 C.2     1  UNL1        0.0664
     10 C          56.2393   92.5924   -3.7019 C.3     1  UNL1        0.0718
     11 C          55.7707   93.3886   -4.8836 C.2     1  UNL1       -0.0198
     12 C          56.0848   94.8525   -4.9738 C.2     1  UNL1       -0.0040
     13 C          56.8674   95.5203   -3.8823 C.2     1  UNL1        0.0041
     14 C          57.3360   94.7242   -2.7006 C.2     1  UNL1        0.0528
     15 C          58.1187   95.3920   -1.6089 C.2     1  UNL1        0.1982
     16 O          58.4328   96.8559   -1.6991 O.2     1  UNL1       -0.2865
     17 C          58.5873   94.5958   -0.4272 C.ar    1  UNL1        0.0588
     18 C          59.3700   95.2636    0.6644 C.ar    1  UNL1        0.0345
     19 C          59.8386   94.4674    1.8461 C.ar    1  UNL1        0.1446
     20 F          60.6212   95.1352    2.9376 F       1  UNL1       -0.2040
     21 C          59.4621   90.7962    5.2339 C.3     1  UNL1        0.0775
     22 C          60.8869   91.0487    4.8389 C.3     1  UNL1        0.0243
     23 C          58.0372   90.5437    5.6288 C.3     1  UNL1        0.0243
     24 C          60.8679   88.4077    8.7790 C.ar    1  UNL1        0.1318
     25 C          59.8702   87.8191    7.8262 C.ar    1  UNL1        0.0341
     26 C          59.4015   88.6152    6.6444 C.ar    1  UNL1        0.0017
     27 C          59.9307   90.0000    6.4156 C.ar    1  UNL1        0.0130
     28 C          60.9285   90.5886    7.3685 C.ar    1  UNL1        0.0975
     29 N          61.3971   89.7924    8.5502 N.ar    1  UNL1       -0.2294
     30 N          62.2738   86.0191   12.3242 N.3     1  UNL1       -0.2698
     31 C          62.4425   87.5095   12.3095 C.3     1  UNL1        0.0939
     32 C          61.9739   88.3057   11.1278 C.3     1  UNL1        0.1095
     33 N          61.3366   87.6115    9.9608 N.pl3   1  UNL1       -0.2904
     34 C          61.1679   86.1210    9.9755 C.3     1  UNL1        0.1095
     35 C          61.6365   85.3249   11.1572 C.3     1  UNL1        0.0939
     36 C          63.9892   85.6267   14.2356 C.3     1  UNL1        0.0188
     37 C          62.7425   85.2229   13.5060 C.3     1  UNL1        0.0722
@<TRIPOS>BOND
     1    36    37    1
     2    37    30    1
     3    30    31    1
     4    31    32    1
     5    32    33    1
     6    33    24    1
     7    24    25   ar
     8    25    26   ar
     9    26    27   ar
    10    27    21    1
    11    21    22    1
    12    21    23    1
    13    21     1    1
    14     1     2   am
    15     2     3    2
    16     2     5    1
    17     5     6   ar
    18     6     7   ar
    19     7     8    1
    20     8     9    2
    21     9    10    1
    22    10    11    1
    23    11    12    2
    24    12    13    1
    25    13    14    2
    26    14    15    1
    27    15    16    2
    28    15    17    1
    29    17    18   ar
    30    18    19   ar
    31    19    20    1
    32    27    28   ar
    33    28    29   ar
    34    33    34    1
    35    34    35    1
    36    35    30    1
    37    29    24   ar
    38    19     5   ar
    39    17     7   ar
    40    14     9    1
    41     1     4    1
@<TRIPOS>MOLECULE
*****
 37 41 0 0 0
SMALL
GASTEIGER

@<TRIPOS>ATOM
      1 N          58.8825   92.8690    2.3713 N.am    1  UNL1       -0.3004
      2 C          59.7691   92.7692    1.1654 C.2     1  UNL1        0.2482
      3 O          60.9571   91.8536    1.1818 O.2     1  UNL1       -0.2701
      4 H          58.1027   93.4699    2.3606 H       1  UNL1        0.1499
      5 C          59.4675   93.5848   -0.0567 C.ar    1  UNL1        0.0823
      6 C          58.0830   93.5872   -0.6340 C.ar    1  UNL1        0.0260
      7 C          57.7814   94.4028   -1.8562 C.ar    1  UNL1        0.0843
      8 N          56.3970   94.4052   -2.4334 N.2     1  UNL1       -0.2491
      9 C          56.0954   95.2209   -3.6557 C.2     1  UNL1        0.0664
     10 C          54.7109   95.2233   -4.2329 C.3     1  UNL1        0.0718
     11 C          54.4093   96.0389   -5.4551 C.2     1  UNL1       -0.0198
     12 C          55.4922   96.8521   -6.1000 C.2     1  UNL1       -0.0040
     13 C          56.8767   96.8497   -5.5228 C.2     1  UNL1        0.0041
     14 C          57.1783   96.0341   -4.3006 C.2     1  UNL1        0.0528
     15 C          58.5628   96.0317   -3.7234 C.2     1  UNL1        0.1982
     16 O          59.6457   96.8449   -4.3683 O.2     1  UNL1       -0.2865
     17 C          58.8643   95.2161   -2.5012 C.ar    1  UNL1        0.0588
     18 C          60.2489   95.2136   -1.9239 C.ar    1  UNL1        0.0345
     19 C          60.5504   94.3980   -0.7017 C.ar    1  UNL1        0.1446
     20 F          61.9349   94.3956   -0.1245 F       1  UNL1       -0.2040
     21 C          59.1840   92.0534    3.5935 C.3     1  UNL1        0.0775
     22 C          60.6476   92.3307    3.4175 C.3     1  UNL1        0.0243
     23 C          57.7205   91.7761    3.7695 C.3     1  UNL1        0.0243
     24 C          60.0888   89.6065    7.2601 C.ar    1  UNL1        0.1318
     25 C          58.6676   89.9318    6.9075 C.ar    1  UNL1        0.0341
     26 C          58.3660   90.7475    5.6852 C.ar    1  UNL1        0.0017
     27 C          59.4856   91.2378    4.8157 C.ar    1  UNL1        0.0130
     28 C          60.9068   90.9124    5.1684 C.ar    1  UNL1        0.0975
     29 N          61.2084   90.0968    6.3906 N.ar    1  UNL1       -0.2294
     30 N          60.9936   87.1596   10.9268 N.3     1  UNL1       -0.2698
     31 C          61.0812   86.5332    9.5666 C.3     1  UNL1        0.0939
     32 C          60.7796   87.3488    8.3444 C.3     1  UNL1        0.1095
     33 N          60.3904   88.7908    8.4824 N.pl3   1  UNL1       -0.2904
     34 C          60.3028   89.4172    9.8425 C.3     1  UNL1        0.1095
     35 C          60.6043   88.6017   11.0647 C.3     1  UNL1        0.0939
     36 C          62.3290   85.2588   12.0901 C.3     1  UNL1        0.0188
     37 C          61.2952   86.3440   12.1490 C.3     1  UNL1        0.0722
@<TRIPOS>BOND
     1    36    37    1
     2    37    30    1
     3    30    31    1
     4    31    32    1
     5    32    33    1
     6    33    24    1
     7    24    25   ar
     8    25    26   ar
     9    26    27   ar
    10    27    21    1
    11    21    22    1
    12    21    23    1
    13    21     1    1
    14     1     2   am
    15     2     3    2
    16     2     5    1
    17     5     6   ar
    18     6     7   ar
    19     7     8    1
    20     8     9    2
    21     9    10    1
    22    10    11    1
    23    11    12    2
    24    12    13    1
    25    13    14    2
    26    14    15    1
    27    15    16    2
    28    15    17    1
    29    17    18   ar
    30    18    19   ar
    31    19    20    1
    32    27    28   ar
    33    28    29   ar
    34    33    34    1
    35    34    35    1
    36    35    30    1
    37    29    24   ar
    38    19     5   ar
    39    17     7   ar
    40    14     9    1
    41     1     4    1
@<TRIPOS>MOLECULE
*****
 37 41 0 0 0
SMALL
GASTEIGER

@<TRIPOS>ATOM
      1 N          60.8717   90.6925    5.9033 N.am    1  UNL1       -0.3004
      2 C          59.9544   89.6484    6.4675 C.2     1  UNL1        0.2482
      3 O          58.6346   89.3747    5.8093 O.2     1  UNL1       -0.2701
      4 H          61.7379   90.8721    6.3353 H       1  UNL1        0.1499
      5 C          60.3568   88.8779    7.6900 C.ar    1  UNL1        0.0823
      6 C          61.1914   87.6390    7.5546 C.ar    1  UNL1        0.0260
      7 C          61.5939   86.8685    8.7771 C.ar    1  UNL1        0.0843
      8 N          62.4285   85.6295    8.6417 N.2     1  UNL1       -0.2491
      9 C          62.8310   84.8590    9.8642 C.2     1  UNL1        0.0664
     10 C          63.6656   83.6201    9.7288 C.3     1  UNL1        0.0718
     11 C          64.0681   82.8497   10.9512 C.2     1  UNL1       -0.0198
     12 C          63.6359   83.3182   12.3091 C.2     1  UNL1       -0.0040
     13 C          62.8013   84.5571   12.4444 C.2     1  UNL1        0.0041
     14 C          62.3989   85.3276   11.2220 C.2     1  UNL1        0.0528
     15 C          61.5642   86.5666   11.3573 C.2     1  UNL1        0.1982
     16 O          61.1321   87.0351   12.7152 O.2     1  UNL1       -0.2865
     17 C          61.1618   87.3370   10.1349 C.ar    1  UNL1        0.0588
     18 C          60.3271   88.5760   10.2703 C.ar    1  UNL1        0.0345
     19 C          59.9246   89.3465    9.0478 C.ar    1  UNL1        0.1446
     20 F          59.0900   90.5854    9.1832 F       1  UNL1       -0.2040
     21 C          60.4692   91.4629    4.6808 C.3     1  UNL1        0.0775
     22 C          61.7609   91.0858    4.0179 C.3     1  UNL1        0.0243
     23 C          59.1776   91.8400    5.3437 C.3     1  UNL1        0.0243
     24 C          59.2618   93.7742    1.0134 C.ar    1  UNL1        0.1318
     25 C          60.5104   94.1460    1.7568 C.ar    1  UNL1        0.0341
     26 C          60.9129   93.3756    2.9794 C.ar    1  UNL1        0.0017
     27 C          60.0668   92.2334    3.4584 C.ar    1  UNL1        0.0130
     28 C          58.8181   91.8616    2.7148 C.ar    1  UNL1        0.0975
     29 N          58.4157   92.6320    1.4924 N.ar    1  UNL1       -0.2294
     30 N          58.0544   96.0855   -2.6540 N.3     1  UNL1       -0.2698
     31 C          57.1486   95.0235   -2.1048 C.3     1  UNL1        0.0939
     32 C          57.5510   94.2531   -0.8824 C.3     1  UNL1        0.1095
     33 N          58.8593   94.5447   -0.2091 N.pl3   1  UNL1       -0.2904
     34 C          59.7651   95.6067   -0.7583 C.3     1  UNL1        0.1095
     35 C          59.3627   96.3771   -1.9808 C.3     1  UNL1        0.0939
     36 C          56.2355   96.7983   -4.3668 C.3     1  UNL1        0.0188
     37 C          57.6519   96.8560   -3.8765 C.3     1  UNL1        0.0722
@<TRIPOS>BOND
     1    36    37    1
     2    37    30    1
     3    30    31    1
     4    31    32    1
     5    32    33    1
     6    33    24    1
     7    24    25   ar
     8    25    26   ar
     9    26    27   ar
    10    27    21    1
    11    21    22    1
    12    21    23    1
    13    21     1    1
    14     1     2   am
    15     2     3    2
    16     2     5    1
    17     5     6   ar
    18     6     7   ar
    19     7     8    1
    20     8     9    2
    21     9    10    1
    22    10    11    1
    23    11    12    2
    24    12    13    1
    25    13    14    2
    26    14    15    1
    27    15    16    2
    28    15    17    1
    29    17    18   ar
    30    18    19   ar
    31    19    20    1
    32    27    28   ar
    33    28    29   ar
    34    33    34    1
    35    34    35    1
    36    35    30    1
    37    29    24   ar
    38    19     5   ar
    39    17     7   ar
    40    14     9    1
    41     1     4    1
