@<TRIPOS>MOLECULE
*****
 31 34 0 0 0
SMALL
GASTEIGER

@<TRIPOS>ATOM
      1 N          64.3120   91.5465   11.6112 N.am    1  UNL1       -0.2723
      2 C          65.3867   92.5930   11.6071 C.2     1  UNL1        0.2685
      3 O          65.6449   93.3979   10.3680 O.2     1  UNL1       -0.2682
      4 N          63.2588   88.2642   16.6638 N.3     1  UNL1       -0.2727
      5 C          63.1451   89.7548   16.5411 C.3     1  UNL1        0.0721
      6 C          63.4922   90.1318   15.1313 C.3     1  UNL1        0.0190
      7 C          63.6364   91.2859   14.1842 C.3     1  UNL1        0.0213
      8 C          64.0537   90.7416   12.8503 C.3     1  UNL1        0.0761
      9 C          64.1674   89.2510   12.9729 C.3     1  UNL1        0.0213
     10 C          63.8204   88.8740   14.3827 C.3     1  UNL1        0.0190
     11 C          63.6762   87.7198   15.3298 C.3     1  UNL1        0.0721
     12 C          62.4972   86.0507   17.7909 C.3     1  UNL1        0.0188
     13 C          63.0005   87.4592   17.9029 C.3     1  UNL1        0.0721
     14 C          66.2031   92.8345   12.8421 C.ar    1  UNL1        0.1535
     15 C          67.2917   91.9460   13.3670 C.ar    1  UNL1        0.1012
     16 N          67.8356   92.5694   14.6184 N.ar    1  UNL1       -0.3057
     17 C          68.9384   92.0162   15.4715 C.3     1  UNL1        0.1321
     18 C          67.0831   93.8430   14.8667 C.ar    1  UNL1        0.1787
     19 N          66.0742   94.0068   13.7689 N.ar    1  UNL1       -0.2192
     20 C          63.4956   91.3050   10.3763 C.3     1  UNL1        0.1205
     21 C          62.3459   90.3424   10.4136 C.ar    1  UNL1        0.0007
     22 C          61.0914   90.7007   11.1539 C.ar    1  UNL1       -0.0024
     23 C          59.9417   89.7380   11.1912 C.ar    1  UNL1        0.0028
     24 C          60.0464   88.4171   10.4882 C.ar    1  UNL1        0.0372
     25 C          61.3008   88.0588    9.7479 C.ar    1  UNL1        0.1465
     26 C          62.4506   89.0215    9.7106 C.ar    1  UNL1        0.0346
     27 O          61.4055   86.7380    9.0449 O.3     1  UNL1       -0.4045
     28 C          62.3617   85.6960    9.5448 C.3     1  UNL1        0.5753
     29 F          63.3180   84.6540   10.0446 F       1  UNL1       -0.1328
     30 F          61.4840   85.4632   10.7387 F       1  UNL1       -0.1328
     31 F          63.2395   85.9288    8.3508 F       1  UNL1       -0.1328
@<TRIPOS>BOND
     1    12    13    1
     2    13     4    1
     3     4     5    1
     4     6     5    1
     5     6     7    1
     6     7     8    1
     7     8     1    1
     8     1    20    1
     9    20    21    1
    10    21    22   ar
    11    22    23   ar
    12    23    24   ar
    13    24    25   ar
    14    25    27    1
    15    27    28    1
    16    28    29    1
    17    28    30    1
    18    28    31    1
    19    25    26   ar
    20     1     2   am
    21     2     3    2
    22     2    14    1
    23    14    15   ar
    24    15    16   ar
    25    16    17    1
    26    16    18   ar
    27    18    19   ar
    28     8     9    1
    29    10     9    1
    30    10    11    1
    31    11     4    1
    32    10     6    1
    33    26    21   ar
    34    19    14   ar
@<TRIPOS>MOLECULE
*****
 31 34 0 0 0
SMALL
GASTEIGER

@<TRIPOS>ATOM
      1 N          63.9609   90.4865   14.2733 N.am    1  UNL1       -0.2723
      2 C          65.1254   91.4146   14.0934 C.2     1  UNL1        0.2685
      3 O          65.9101   91.8735   15.2865 O.2     1  UNL1       -0.2682
      4 N          60.7611   88.6152    9.4080 N.3     1  UNL1       -0.2727
      5 C          60.4849   89.8415   10.2265 C.3     1  UNL1        0.0721
      6 C          61.5129   89.9126   11.3165 C.3     1  UNL1        0.0190
      7 C          61.9775   90.7144   12.4960 C.3     1  UNL1        0.0213
      8 C          63.1762   90.0276   13.0802 C.3     1  UNL1        0.0761
      9 C          63.4524   88.8013   12.2618 C.3     1  UNL1        0.0213
     10 C          62.4244   88.7302   11.1718 C.3     1  UNL1        0.0190
     11 C          61.9598   87.9284    9.9923 C.3     1  UNL1        0.0721
     12 C          59.6759   86.6984    8.0304 C.3     1  UNL1        0.0188
     13 C          59.9764   88.1563    8.2149 C.3     1  UNL1        0.0721
     14 C          65.5053   91.8838   12.7202 C.ar    1  UNL1        0.1535
     15 C          66.8974   91.9523   12.1656 C.ar    1  UNL1        0.1012
     16 N          66.8121   92.4778   10.7632 N.ar    1  UNL1       -0.3057
     17 C          67.9686   92.7068    9.8357 C.3     1  UNL1        0.1321
     18 C          65.3675   92.7340   10.4511 C.ar    1  UNL1        0.1787
     19 N          64.5599   92.3669   11.6606 N.ar    1  UNL1       -0.2192
     20 C          63.5810   90.0173   15.6465 C.3     1  UNL1        0.1205
     21 C          63.5557   88.5501   15.9574 C.ar    1  UNL1        0.0007
     22 C          62.8768   88.0587   17.2015 C.ar    1  UNL1       -0.0024
     23 C          62.8515   86.5915   17.5125 C.ar    1  UNL1        0.0028
     24 C          63.5051   85.6157   16.5794 C.ar    1  UNL1        0.0372
     25 C          64.1840   86.1071   15.3354 C.ar    1  UNL1        0.1465
     26 C          64.2094   87.5743   15.0244 C.ar    1  UNL1        0.0346
     27 O          64.8377   85.1313   14.4024 O.3     1  UNL1       -0.4045
     28 C          63.9999   84.1563   13.6294 C.3     1  UNL1        0.5753
     29 F          63.1621   83.1813   12.8565 F       1  UNL1       -0.1328
     30 F          63.5943   85.2512   12.6878 F       1  UNL1       -0.1328
     31 F          64.4055   83.0614   14.5710 F       1  UNL1       -0.1328
@<TRIPOS>BOND
     1    12    13    1
     2    13     4    1
     3     4     5    1
     4     6     5    1
     5     6     7    1
     6     7     8    1
     7     8     1    1
     8     1    20    1
     9    20    21    1
    10    21    22   ar
    11    22    23   ar
    12    23    24   ar
    13    24    25   ar
    14    25    27    1
    15    27    28    1
    16    28    29    1
    17    28    30    1
    18    28    31    1
    19    25    26   ar
    20     1     2   am
    21     2     3    2
    22     2    14    1
    23    14    15   ar
    24    15    16   ar
    25    16    17    1
    26    16    18   ar
    27    18    19   ar
    28     8     9    1
    29    10     9    1
    30    10    11    1
    31    11     4    1
    32    10     6    1
    33    26    21   ar
    34    19    14   ar
@<TRIPOS>MOLECULE
*****
 31 34 0 0 0
SMALL
GASTEIGER

@<TRIPOS>ATOM
      1 N          64.1920   84.6474   14.0352 N.am    1  UNL1       -0.2723
      2 C          63.9354   83.4133   14.8483 C.2     1  UNL1        0.2685
      3 O          64.5148   83.2892   16.2263 O.2     1  UNL1       -0.2682
      4 N          61.8295   85.1536    8.4162 N.3     1  UNL1       -0.2727
      5 C          61.3213   85.8366    9.6511 C.3     1  UNL1        0.0721
      6 C          62.1965   85.4298   10.7994 C.3     1  UNL1        0.0190
      7 C          62.4233   85.6005   12.2723 C.3     1  UNL1        0.0213
      8 C          63.6126   84.7715   12.6572 C.3     1  UNL1        0.0761
      9 C          64.1208   84.0884   11.4224 C.3     1  UNL1        0.0213
     10 C          63.2456   84.4952   10.2741 C.3     1  UNL1        0.0190
     11 C          63.0188   84.3245    8.8012 C.3     1  UNL1        0.0721
     12 C          61.7598   84.4061    5.9289 C.3     1  UNL1        0.0188
     13 C          61.2501   85.2777    7.0382 C.3     1  UNL1        0.0721
     14 C          63.0994   82.3033   14.2834 C.ar    1  UNL1        0.1535
     15 C          61.6722   82.0066   14.6373 C.ar    1  UNL1        0.1012
     16 N          61.2347   80.8150   13.8380 N.ar    1  UNL1       -0.3057
     17 C          59.8785   80.1754   13.8793 C.3     1  UNL1        0.1321
     18 C          62.3914   80.3754   12.9903 C.ar    1  UNL1        0.1787
     19 N          63.5438   81.2952   13.2656 N.ar    1  UNL1       -0.2192
     20 C          65.0279   85.7573   14.6001 C.3     1  UNL1        0.1205
     21 C          64.3674   86.9502   15.2253 C.ar    1  UNL1        0.0007
     22 C          63.6147   86.8011   16.5142 C.ar    1  UNL1       -0.0024
     23 C          62.9542   87.9939   17.1393 C.ar    1  UNL1        0.0028
     24 C          63.0464   89.3359   16.4755 C.ar    1  UNL1        0.0372
     25 C          63.7990   89.4850   15.1866 C.ar    1  UNL1        0.1465
     26 C          64.4595   88.2921   14.5615 C.ar    1  UNL1        0.0346
     27 O          63.8911   90.8270   14.5228 O.3     1  UNL1       -0.4045
     28 C          65.1656   91.2460   13.8521 C.3     1  UNL1        0.5753
     29 F          66.4402   91.6651   13.1813 F       1  UNL1       -0.1328
     30 F          65.8464   91.3122   15.1870 F       1  UNL1       -0.1328
     31 F          64.4848   91.1798   12.5171 F       1  UNL1       -0.1328
@<TRIPOS>BOND
     1    12    13    1
     2    13     4    1
     3     4     5    1
     4     6     5    1
     5     6     7    1
     6     7     8    1
     7     8     1    1
     8     1    20    1
     9    20    21    1
    10    21    22   ar
    11    22    23   ar
    12    23    24   ar
    13    24    25   ar
    14    25    27    1
    15    27    28    1
    16    28    29    1
    17    28    30    1
    18    28    31    1
    19    25    26   ar
    20     1     2   am
    21     2     3    2
    22     2    14    1
    23    14    15   ar
    24    15    16   ar
    25    16    17    1
    26    16    18   ar
    27    18    19   ar
    28     8     9    1
    29    10     9    1
    30    10    11    1
    31    11     4    1
    32    10     6    1
    33    26    21   ar
    34    19    14   ar
@<TRIPOS>MOLECULE
*****
 31 34 0 0 0
SMALL
GASTEIGER

@<TRIPOS>ATOM
      1 N          64.2672   91.2692   13.2266 N.am    1  UNL1       -0.2723
      2 C          64.5368   90.9301   14.6627 C.2     1  UNL1        0.2685
      3 O          65.3463   91.8626   15.5143 O.2     1  UNL1       -0.2682
      4 N          60.9664   87.4669    9.7541 N.3     1  UNL1       -0.2727
      5 C          60.9507   88.9650    9.6816 C.3     1  UNL1        0.0721
      6 C          61.9083   89.4890   10.7104 C.3     1  UNL1        0.0190
      7 C          62.4905   90.7387   11.3014 C.3     1  UNL1        0.0213
      8 C          63.4577   90.3367   12.3750 C.3     1  UNL1        0.0761
      9 C          63.4735   88.8386   12.4476 C.3     1  UNL1        0.0213
     10 C          62.5158   88.3147   11.4188 C.3     1  UNL1        0.0190
     11 C          61.9337   87.0649   10.8277 C.3     1  UNL1        0.0721
     12 C          59.3100   87.0787    7.7905 C.3     1  UNL1        0.0188
     13 C          60.1569   86.5344    8.9025 C.3     1  UNL1        0.0721
     14 C          63.9968   89.6585   15.2472 C.ar    1  UNL1        0.1535
     15 C          64.5295   88.2784   14.9993 C.ar    1  UNL1        0.1012
     16 N          63.6912   87.3108   15.7812 N.ar    1  UNL1       -0.3057
     17 C          63.8719   85.8223   15.8244 C.3     1  UNL1        0.1321
     18 C          62.6407   88.0930   16.5122 C.ar    1  UNL1        0.1787
     19 N          62.8296   89.5440   16.1822 N.ar    1  UNL1       -0.2192
     20 C          64.8072   92.5407   12.6421 C.3     1  UNL1        0.1205
     21 C          66.0478   92.5113   11.7995 C.ar    1  UNL1        0.0007
     22 C          67.2718   91.7973   12.2914 C.ar    1  UNL1       -0.0024
     23 C          68.5124   91.7679   11.4488 C.ar    1  UNL1        0.0028
     24 C          68.5289   92.4526   10.1142 C.ar    1  UNL1        0.0372
     25 C          67.3049   93.1665    9.6223 C.ar    1  UNL1        0.1465
     26 C          66.0643   93.1959   10.4650 C.ar    1  UNL1        0.0346
     27 O          67.3215   93.8511    8.2878 O.3     1  UNL1       -0.4045
     28 C          67.3078   95.3492    8.2131 C.3     1  UNL1        0.5753
     29 F          67.2940   96.8473    8.1384 F       1  UNL1       -0.1328
     30 F          66.4301   95.2806    6.9986 F       1  UNL1       -0.1328
     31 F          68.1855   95.4178    9.4276 F       1  UNL1       -0.1328
@<TRIPOS>BOND
     1    12    13    1
     2    13     4    1
     3     4     5    1
     4     6     5    1
     5     6     7    1
     6     7     8    1
     7     8     1    1
     8     1    20    1
     9    20    21    1
    10    21    22   ar
    11    22    23   ar
    12    23    24   ar
    13    24    25   ar
    14    25    27    1
    15    27    28    1
    16    28    29    1
    17    28    30    1
    18    28    31    1
    19    25    26   ar
    20     1     2   am
    21     2     3    2
    22     2    14    1
    23    14    15   ar
    24    15    16   ar
    25    16    17    1
    26    16    18   ar
    27    18    19   ar
    28     8     9    1
    29    10     9    1
    30    10    11    1
    31    11     4    1
    32    10     6    1
    33    26    21   ar
    34    19    14   ar
@<TRIPOS>MOLECULE
*****
 31 34 0 0 0
SMALL
GASTEIGER

@<TRIPOS>ATOM
      1 N          63.8827   89.4092   13.5291 N.am    1  UNL1       -0.2723
      2 C          62.9234   90.1686   12.6614 C.2     1  UNL1        0.2685
      3 O          62.9773   91.6670   12.6167 O.2     1  UNL1       -0.2682
      4 N          63.6629   83.2993   13.7114 N.3     1  UNL1       -0.2727
      5 C          64.2625   84.1916   14.7575 C.3     1  UNL1        0.0721
      6 C          64.0969   85.6123   14.3054 C.3     1  UNL1        0.0190
      7 C          64.3651   87.0417   14.6724 C.3     1  UNL1        0.0213
      8 C          63.8288   87.9108   13.5738 C.3     1  UNL1        0.0761
      9 C          63.2292   87.0186   12.5278 C.3     1  UNL1        0.0213
     10 C          63.3948   85.5980   12.9799 C.3     1  UNL1        0.0190
     11 C          63.1266   84.1685   12.6128 C.3     1  UNL1        0.0721
     12 C          62.8100   81.0484   12.7338 C.3     1  UNL1        0.0188
     13 C          63.6089   81.8010   13.7561 C.3     1  UNL1        0.0721
     14 C          61.9101   89.4297   11.8384 C.ar    1  UNL1        0.1535
     15 C          62.1184   88.9003   10.4504 C.ar    1  UNL1        0.1012
     16 N          60.8476   88.2339   10.0131 N.ar    1  UNL1       -0.3057
     17 C          60.6118   87.5671    8.6903 C.3     1  UNL1        0.1321
     18 C          59.8542   88.3514   11.1308 C.ar    1  UNL1        0.1787
     19 N          60.5109   89.0904   12.2588 N.ar    1  UNL1       -0.2192
     20 C          64.8960   90.1481   14.3521 C.3     1  UNL1        0.1205
     21 C          65.5254   91.4009   13.8191 C.ar    1  UNL1        0.0007
     22 C          65.9319   92.4954   14.7611 C.ar    1  UNL1       -0.0024
     23 C          66.5613   93.7482   14.2281 C.ar    1  UNL1        0.0028
     24 C          66.7844   93.9067   12.7533 C.ar    1  UNL1        0.0372
     25 C          66.3780   92.8123   11.8114 C.ar    1  UNL1        0.1465
     26 C          65.7485   91.5595   12.3443 C.ar    1  UNL1        0.0346
     27 O          66.6011   92.9709   10.3366 O.3     1  UNL1       -0.4045
     28 C          67.9905   92.8974    9.7761 C.3     1  UNL1        0.5753
     29 F          69.3799   92.8239    9.2155 F       1  UNL1       -0.1328
     30 F          68.0252   94.3930    9.6661 F       1  UNL1       -0.1328
     31 F          67.9558   91.4018    9.8860 F       1  UNL1       -0.1328
@<TRIPOS>BOND
     1    12    13    1
     2    13     4    1
     3     4     5    1
     4     6     5    1
     5     6     7    1
     6     7     8    1
     7     8     1    1
     8     1    20    1
     9    20    21    1
    10    21    22   ar
    11    22    23   ar
    12    23    24   ar
    13    24    25   ar
    14    25    27    1
    15    27    28    1
    16    28    29    1
    17    28    30    1
    18    28    31    1
    19    25    26   ar
    20     1     2   am
    21     2     3    2
    22     2    14    1
    23    14    15   ar
    24    15    16   ar
    25    16    17    1
    26    16    18   ar
    27    18    19   ar
    28     8     9    1
    29    10     9    1
    30    10    11    1
    31    11     4    1
    32    10     6    1
    33    26    21   ar
    34    19    14   ar
@<TRIPOS>MOLECULE
*****
 31 34 0 0 0
SMALL
GASTEIGER

@<TRIPOS>ATOM
      1 N          63.8801   89.4235   13.5488 N.am    1  UNL1       -0.2723
      2 C          64.8560   90.5606   13.6154 C.2     1  UNL1        0.2685
      3 O          65.7718   90.6948   14.7958 O.2     1  UNL1       -0.2682
      4 N          60.1459   88.8762    8.7354 N.3     1  UNL1       -0.2727
      5 C          61.2945   87.9705    9.0678 C.3     1  UNL1        0.0721
      6 C          61.9323   88.4743   10.3285 C.3     1  UNL1        0.0190
      7 C          63.0364   88.2258   11.3131 C.3     1  UNL1        0.0213
      8 C          62.9643   89.2893   12.3683 C.3     1  UNL1        0.0761
      9 C          61.8158   90.1950   12.0361 C.3     1  UNL1        0.0213
     10 C          61.1779   89.6913   10.7754 C.3     1  UNL1        0.0190
     11 C          60.0739   89.9397    9.7908 C.3     1  UNL1        0.0721
     12 C          59.3512   89.6915    6.4001 C.3     1  UNL1        0.0188
     13 C          59.2301   88.7420    7.5550 C.3     1  UNL1        0.0721
     14 C          64.9163   91.5635   12.5015 C.ar    1  UNL1        0.1535
     15 C          65.6064   92.8945   12.5500 C.ar    1  UNL1        0.1012
     16 N          65.4136   93.5651   11.2221 N.ar    1  UNL1       -0.3057
     17 C          65.9379   94.9152   10.8318 C.3     1  UNL1        0.1321
     18 C          64.6044   92.6485   10.3531 C.ar    1  UNL1        0.1787
     19 N          64.2971   91.4115   11.1439 N.ar    1  UNL1       -0.2192
     20 C          63.8199   88.4206   14.6626 C.3     1  UNL1        0.1205
     21 C          64.1340   86.9791   14.3917 C.ar    1  UNL1        0.0007
     22 C          65.2360   86.2970   15.1469 C.ar    1  UNL1       -0.0024
     23 C          65.5502   84.8555   14.8760 C.ar    1  UNL1        0.0028
     24 C          64.7623   84.0961   13.8499 C.ar    1  UNL1        0.0372
     25 C          63.6604   84.7783   13.0947 C.ar    1  UNL1        0.1465
     26 C          63.3463   86.2198   13.3656 C.ar    1  UNL1        0.0346
     27 O          62.8727   84.0190   12.0686 O.3     1  UNL1       -0.4045
     28 C          62.8746   84.4691   10.6378 C.3     1  UNL1        0.5753
     29 F          62.8764   84.9192    9.2069 F       1  UNL1       -0.1328
     30 F          64.1944   83.7888   10.4255 F       1  UNL1       -0.1328
     31 F          61.5547   85.1495   10.8500 F       1  UNL1       -0.1328
@<TRIPOS>BOND
     1    12    13    1
     2    13     4    1
     3     4     5    1
     4     6     5    1
     5     6     7    1
     6     7     8    1
     7     8     1    1
     8     1    20    1
     9    20    21    1
    10    21    22   ar
    11    22    23   ar
    12    23    24   ar
    13    24    25   ar
    14    25    27    1
    15    27    28    1
    16    28    29    1
    17    28    30    1
    18    28    31    1
    19    25    26   ar
    20     1     2   am
    21     2     3    2
    22     2    14    1
    23    14    15   ar
    24    15    16   ar
    25    16    17    1
    26    16    18   ar
    27    18    19   ar
    28     8     9    1
    29    10     9    1
    30    10    11    1
    31    11     4    1
    32    10     6    1
    33    26    21   ar
    34    19    14   ar
@<TRIPOS>MOLECULE
*****
 31 34 0 0 0
SMALL
GASTEIGER

@<TRIPOS>ATOM
      1 N          60.5625   95.2605   -0.2296 N.am    1  UNL1       -0.2723
      2 C          60.7372   94.8512    1.2028 C.2     1  UNL1        0.2685
      3 O          59.7594   95.3170    2.2406 O.2     1  UNL1       -0.2682
      4 N          64.5497   93.3608   -4.4611 N.3     1  UNL1       -0.2727
      5 C          64.4406   94.7534   -3.9146 C.3     1  UNL1        0.0721
      6 C          63.3328   94.7692   -2.9034 C.3     1  UNL1        0.0190
      7 C          62.5807   95.6396   -1.9407 C.3     1  UNL1        0.0213
      8 C          61.5403   94.7946   -1.2673 C.3     1  UNL1        0.0761
      9 C          61.6494   93.4020   -1.8137 C.3     1  UNL1        0.0213
     10 C          62.7572   93.3862   -2.8249 C.3     1  UNL1        0.0190
     11 C          63.5093   92.5158   -3.7876 C.3     1  UNL1        0.0721
     12 C          65.1146   91.8677   -6.5108 C.3     1  UNL1        0.0188
     13 C          65.5275   92.8949   -5.4988 C.3     1  UNL1        0.0721
     14 C          61.8897   93.9759    1.5976 C.ar    1  UNL1        0.1535
     15 C          61.7933   92.6592    2.3097 C.ar    1  UNL1        0.1012
     16 N          63.1850   92.1333    2.5018 N.ar    1  UNL1       -0.3057
     17 C          63.5552   90.8423    3.1699 C.3     1  UNL1        0.1321
     18 C          64.1413   93.1250    1.9084 C.ar    1  UNL1        0.1787
     19 N          63.3407   94.2637    1.3497 N.ar    1  UNL1       -0.2192
     20 C          59.4101   96.1357   -0.6243 C.3     1  UNL1        0.1205
     21 C          58.0987   95.5193   -1.0124 C.ar    1  UNL1        0.0007
     22 C          56.8731   96.3761   -1.1305 C.ar    1  UNL1       -0.0024
     23 C          55.5618   95.7598   -1.5186 C.ar    1  UNL1        0.0028
     24 C          55.4761   94.2867   -1.7884 C.ar    1  UNL1        0.0372
     25 C          56.7017   93.4300   -1.6703 C.ar    1  UNL1        0.1465
     26 C          58.0130   94.0463   -1.2822 C.ar    1  UNL1        0.0346
     27 O          56.6159   91.9570   -1.9401 O.3     1  UNL1       -0.4045
     28 C          56.1051   91.4652   -3.2619 C.3     1  UNL1        0.5753
     29 F          55.5943   90.9733   -4.5837 F       1  UNL1       -0.1328
     30 F          55.2225   90.4802   -2.5543 F       1  UNL1       -0.1328
     31 F          56.9877   92.4502   -3.9695 F       1  UNL1       -0.1328
@<TRIPOS>BOND
     1    12    13    1
     2    13     4    1
     3     4     5    1
     4     6     5    1
     5     6     7    1
     6     7     8    1
     7     8     1    1
     8     1    20    1
     9    20    21    1
    10    21    22   ar
    11    22    23   ar
    12    23    24   ar
    13    24    25   ar
    14    25    27    1
    15    27    28    1
    16    28    29    1
    17    28    30    1
    18    28    31    1
    19    25    26   ar
    20     1     2   am
    21     2     3    2
    22     2    14    1
    23    14    15   ar
    24    15    16   ar
    25    16    17    1
    26    16    18   ar
    27    18    19   ar
    28     8     9    1
    29    10     9    1
    30    10    11    1
    31    11     4    1
    32    10     6    1
    33    26    21   ar
    34    19    14   ar
@<TRIPOS>MOLECULE
*****
 31 34 0 0 0
SMALL
GASTEIGER

@<TRIPOS>ATOM
      1 N          63.3479   88.5402   13.5569 N.am    1  UNL1       -0.2723
      2 C          63.8716   87.2410   14.0933 C.2     1  UNL1        0.2685
      3 O          64.6759   87.2220   15.3593 O.2     1  UNL1       -0.2682
      4 N          60.0682   88.6177    8.3946 N.3     1  UNL1       -0.2727
      5 C          59.9288   89.5735    9.5422 C.3     1  UNL1        0.0721
      6 C          60.9276   89.1861   10.5921 C.3     1  UNL1        0.0190
      7 C          61.4587   89.5373   11.9503 C.3     1  UNL1        0.0213
      8 C          62.5436   88.5592   12.2909 C.3     1  UNL1        0.0761
      9 C          62.6831   87.6034   11.1434 C.3     1  UNL1        0.0213
     10 C          61.6843   87.9908   10.0934 C.3     1  UNL1        0.0190
     11 C          61.1532   87.6396    8.7353 C.3     1  UNL1        0.0721
     12 C          59.3381   89.8206    6.2106 C.3     1  UNL1        0.0188
     13 C          59.2639   88.6367    7.1286 C.3     1  UNL1        0.0721
     14 C          63.5910   85.9607   13.3637 C.ar    1  UNL1        0.1535
     15 C          64.5507   84.8229   13.1787 C.ar    1  UNL1        0.1012
     16 N          63.8542   83.7525   12.3917 N.ar    1  UNL1       -0.3057
     17 C          64.4442   82.4367   11.9786 C.3     1  UNL1        0.1321
     18 C          62.4641   84.2289   12.0905 C.ar    1  UNL1        0.1787
     19 N          62.3015   85.5936   12.6913 N.ar    1  UNL1       -0.2192
     20 C          63.6285   89.8204   14.2864 C.3     1  UNL1        0.1205
     21 C          64.7055   90.7424   13.7964 C.ar    1  UNL1        0.0007
     22 C          64.5339   91.4726   12.4974 C.ar    1  UNL1       -0.0024
     23 C          65.6109   92.3946   12.0074 C.ar    1  UNL1        0.0028
     24 C          66.8595   92.5862   12.8164 C.ar    1  UNL1        0.0372
     25 C          67.0310   91.8560   14.1153 C.ar    1  UNL1        0.1465
     26 C          65.9540   90.9341   14.6053 C.ar    1  UNL1        0.0346
     27 O          68.2795   92.0477   14.9243 O.3     1  UNL1       -0.4045
     28 C          68.5402   93.3605   15.6016 C.3     1  UNL1        0.5753
     29 F          68.8008   94.6732   16.2790 F       1  UNL1       -0.1328
     30 F          69.8879   93.4307   14.9469 F       1  UNL1       -0.1328
     31 F          67.1924   93.2902   16.2564 F       1  UNL1       -0.1328
@<TRIPOS>BOND
     1    12    13    1
     2    13     4    1
     3     4     5    1
     4     6     5    1
     5     6     7    1
     6     7     8    1
     7     8     1    1
     8     1    20    1
     9    20    21    1
    10    21    22   ar
    11    22    23   ar
    12    23    24   ar
    13    24    25   ar
    14    25    27    1
    15    27    28    1
    16    28    29    1
    17    28    30    1
    18    28    31    1
    19    25    26   ar
    20     1     2   am
    21     2     3    2
    22     2    14    1
    23    14    15   ar
    24    15    16   ar
    25    16    17    1
    26    16    18   ar
    27    18    19   ar
    28     8     9    1
    29    10     9    1
    30    10    11    1
    31    11     4    1
    32    10     6    1
    33    26    21   ar
    34    19    14   ar
@<TRIPOS>MOLECULE
*****
 31 34 0 0 0
SMALL
GASTEIGER

@<TRIPOS>ATOM
      1 N          63.3623   88.5624   13.5906 N.am    1  UNL1       -0.2723
      2 C          63.8838   87.6947   14.6974 C.2     1  UNL1        0.2685
      3 O          64.3658   88.3167   15.9744 O.2     1  UNL1       -0.2682
      4 N          61.3968   86.0260    8.3834 N.3     1  UNL1       -0.2727
      5 C          62.1449   85.3249    9.4782 C.3     1  UNL1        0.0721
      6 C          62.4258   86.3239   10.5613 C.3     1  UNL1        0.0190
      7 C          63.0618   86.5080   11.9073 C.3     1  UNL1        0.0213
      8 C          62.8802   87.9404   12.3136 C.3     1  UNL1        0.0761
      9 C          62.1321   88.6416   11.2189 C.3     1  UNL1        0.0213
     10 C          61.8512   87.6426   10.1359 C.3     1  UNL1        0.0190
     11 C          61.2152   87.4584    8.7899 C.3     1  UNL1        0.0721
     12 C          61.8345   84.5341    6.3020 C.3     1  UNL1        0.0188
     13 C          60.9147   85.4040    7.1064 C.3     1  UNL1        0.0721
     14 C          63.9233   86.2048   14.5272 C.ar    1  UNL1        0.1535
     15 C          62.7777   85.2617   14.7468 C.ar    1  UNL1        0.1012
     16 N          63.2618   83.8706   14.4629 N.ar    1  UNL1       -0.3057
     17 C          62.4447   82.6162   14.5574 C.3     1  UNL1        0.1321
     18 C          64.7064   83.9541   14.0678 C.ar    1  UNL1        0.1787
     19 N          65.1152   85.3967   14.1076 N.ar    1  UNL1       -0.2192
     20 C          63.3228   90.0522   13.7609 C.3     1  UNL1        0.1205
     21 C          64.5362   90.8756   13.4451 C.ar    1  UNL1        0.0007
     22 C          65.6553   90.9737   14.4391 C.ar    1  UNL1       -0.0024
     23 C          66.8687   91.7972   14.1233 C.ar    1  UNL1        0.0028
     24 C          66.9629   92.5224   12.8136 C.ar    1  UNL1        0.0372
     25 C          65.8438   92.4242   11.8198 C.ar    1  UNL1        0.1465
     26 C          64.6304   91.6008   12.1355 C.ar    1  UNL1        0.0346
     27 O          65.9380   93.1494   10.5102 O.3     1  UNL1       -0.4045
     28 C          67.2814   93.4943    9.9388 C.3     1  UNL1        0.5753
     29 F          68.6247   93.8392    9.3674 F       1  UNL1       -0.1328
     30 F          67.0406   94.9425   10.2468 F       1  UNL1       -0.1328
     31 F          67.5222   92.0462    9.6308 F       1  UNL1       -0.1328
@<TRIPOS>BOND
     1    12    13    1
     2    13     4    1
     3     4     5    1
     4     6     5    1
     5     6     7    1
     6     7     8    1
     7     8     1    1
     8     1    20    1
     9    20    21    1
    10    21    22   ar
    11    22    23   ar
    12    23    24   ar
    13    24    25   ar
    14    25    27    1
    15    27    28    1
    16    28    29    1
    17    28    30    1
    18    28    31    1
    19    25    26   ar
    20     1     2   am
    21     2     3    2
    22     2    14    1
    23    14    15   ar
    24    15    16   ar
    25    16    17    1
    26    16    18   ar
    27    18    19   ar
    28     8     9    1
    29    10     9    1
    30    10    11    1
    31    11     4    1
    32    10     6    1
    33    26    21   ar
    34    19    14   ar
