@<TRIPOS>MOLECULE
*****
 44 49 0 0 0
SMALL
GASTEIGER

@<TRIPOS>ATOM
      1 N          60.2657   92.2351    2.8958 N.pl3   1  UNL1       -0.3041
      2 C          61.4850   91.6304    3.5264 C.3     1  UNL1        0.1122
      3 C          61.3624   90.8564    4.8055 C.3     1  UNL1        0.1122
      4 N          60.0205   90.6871    5.4539 N.pl3   1  UNL1       -0.3041
      5 C          58.8011   91.2917    4.8233 C.3     1  UNL1        0.1122
      6 C          58.9237   92.0657    3.5443 C.3     1  UNL1        0.1122
      7 C          60.6334   94.5571   -0.9412 C.ar    1  UNL1        0.0699
      8 C          59.9379   95.1659    0.2402 C.ar    1  UNL1        0.0190
      9 C          59.8153   94.3919    1.5191 C.ar    1  UNL1        0.0160
     10 C          60.3883   93.0091    1.6168 C.ar    1  UNL1        0.0480
     11 C          61.0838   92.4003    0.4355 C.ar    1  UNL1        0.0160
     12 C          61.2064   93.1743   -0.8435 C.ar    1  UNL1        0.0190
     13 N          60.3259   96.1887   -4.4496 N.ar    1  UNL1       -0.2024
     14 N          61.5636   96.8559   -3.9272 N.ar    1  UNL1       -0.1442
     15 C          61.8294   96.3259   -2.5493 C.ar    1  UNL1        0.2073
     16 N          60.7560   95.3312   -2.2202 N.ar    1  UNL1       -0.2398
     17 C          59.8268   95.2463   -3.3946 C.ar    1  UNL1        0.3522
     18 O          58.6118   94.3726   -3.4963 O.2     1  UNL1       -0.2444
     19 C          59.6976   96.4227   -5.7914 C.3     1  UNL1        0.1099
     20 C          58.2642   96.8552   -5.8833 C.3     1  UNL1        0.0265
     21 C          61.1904   94.9148   -7.2907 C.3     1  UNL1        0.0021
     22 C          60.5026   96.2242   -7.0415 C.3     1  UNL1        0.0245
     23 C          59.8978   89.9131    6.7329 C.ar    1  UNL1        0.0481
     24 C          59.1023   88.6419    6.7669 C.ar    1  UNL1        0.0176
     25 C          58.9797   87.8678    8.0459 C.ar    1  UNL1        0.0382
     26 C          59.6525   88.3650    9.2909 C.ar    1  UNL1        0.1388
     27 C          60.4480   89.6363    9.2569 C.ar    1  UNL1        0.0382
     28 C          60.5707   90.4103    7.9779 C.ar    1  UNL1        0.0176
     29 O          59.5299   87.5911   10.5699 O.3     1  UNL1       -0.4727
     30 C          60.7617   87.2033   11.3329 C.3     1  UNL1        0.2374
     31 C          61.7318   86.2230   10.7429 C.3     1  UNL1        0.1909
     32 C          62.4651   86.3813    9.4439 C.3     1  UNL1        0.1783
     33 O          63.3254   85.1685    9.2465 O.3     1  UNL1       -0.3281
     34 C          63.1239   84.2607   10.4235 C.3     1  UNL1        0.2082
     35 C          64.1097   83.3808    9.7137 C.3     1  UNL1        0.0663
     36 O          62.1390   84.9124   11.3483 O.3     1  UNL1       -0.3269
     37 C          63.1284   83.1689   11.4520 C.ar    1  UNL1        0.0390
     38 C          62.7496   81.7706   11.0632 C.ar    1  UNL1        0.0021
     39 C          62.7541   80.6787   12.0917 C.ar    1  UNL1        0.0113
     40 C          63.1376   80.9853   13.5091 C.ar    1  UNL1        0.0585
     41 CL         63.1421   79.8933   14.5377 Cl      1  UNL1       -0.0822
     42 C          63.5164   82.3835   13.8980 C.ar    1  UNL1        0.0226
     43 C          63.5118   83.4754   12.8694 C.ar    1  UNL1        0.0590
     44 CL         63.8907   84.8736   13.2583 Cl      1  UNL1       -0.0824
@<TRIPOS>BOND
     1    21    22    1
     2    22    19    1
     3    19    20    1
     4    19    13    1
     5    13    14   ar
     6    14    15   ar
     7    15    16   ar
     8    16     7    1
     9     7     8   ar
    10     8     9   ar
    11     9    10   ar
    12    10     1    1
    13     1     2    1
    14     2     3    1
    15     3     4    1
    16     4    23    1
    17    23    24   ar
    18    24    25   ar
    19    25    26   ar
    20    26    29    1
    21    29    30    1
    22    30    31    1
    23    31    32    1
    24    32    33    1
    25    33    34    1
    26    34    35    1
    27    34    37    1
    28    37    38   ar
    29    38    39   ar
    30    39    40   ar
    31    40    41    1
    32    40    42   ar
    33    42    43   ar
    34    43    44    1
    35    34    36    1
    36    26    27   ar
    37    27    28   ar
    38     4     5    1
    39     5     6    1
    40    10    11   ar
    41    11    12   ar
    42    16    17   ar
    43    17    18    2
    44    17    13   ar
    45    12     7   ar
    46     6     1    1
    47    28    23   ar
    48    36    31    1
    49    43    37   ar
@<TRIPOS>MOLECULE
*****
 44 49 0 0 0
SMALL
GASTEIGER

@<TRIPOS>ATOM
      1 N          61.0127   92.4883    2.3019 N.pl3   1  UNL1       -0.3041
      2 C          59.7000   92.6129    3.0170 C.3     1  UNL1        0.1122
      3 C          59.4812   91.8919    4.3141 C.3     1  UNL1        0.1122
      4 N          60.5750   91.0465    4.8961 N.pl3   1  UNL1       -0.3041
      5 C          61.8877   90.9219    4.1809 C.3     1  UNL1        0.1122
      6 C          62.1065   91.6428    2.8839 C.3     1  UNL1        0.1122
      7 C          61.6693   94.6511   -1.5892 C.ar    1  UNL1        0.0699
      8 C          62.2876   95.1743   -0.3267 C.ar    1  UNL1        0.0190
      9 C          62.0688   94.4534    0.9703 C.ar    1  UNL1        0.0160
     10 C          61.2316   93.2092    1.0048 C.ar    1  UNL1        0.0480
     11 C          60.6132   92.6860   -0.2576 C.ar    1  UNL1        0.0160
     12 C          60.8321   93.4070   -1.5547 C.ar    1  UNL1        0.0190
     13 N          62.8790   96.1250   -4.9700 N.ar    1  UNL1       -0.2024
     14 N          61.5709   96.8379   -4.7946 N.ar    1  UNL1       -0.1442
     15 C          60.9585   96.3725   -3.5067 C.ar    1  UNL1        0.2073
     16 N          61.8882   95.3721   -2.8863 N.ar    1  UNL1       -0.2398
     17 C          63.0751   95.2191   -3.7907 C.ar    1  UNL1        0.3522
     18 O          64.2515   94.3184   -3.5568 O.2     1  UNL1       -0.2444
     19 C          63.8249   96.2893   -6.1225 C.3     1  UNL1        0.1099
     20 C          63.3234   96.8128   -7.4357 C.3     1  UNL1        0.0265
     21 C          66.1906   96.8388   -5.1998 C.3     1  UNL1        0.0021
     22 C          65.2724   95.9301   -5.9619 C.3     1  UNL1        0.0245
     23 C          60.3562   90.3255    6.1931 C.ar    1  UNL1        0.0481
     24 C          61.1118   90.7429    7.4198 C.ar    1  UNL1        0.0176
     25 C          60.8930   90.0219    8.7170 C.ar    1  UNL1        0.0382
     26 C          59.9186   88.8837    8.7873 C.ar    1  UNL1        0.1388
     27 C          59.1630   88.4664    7.5605 C.ar    1  UNL1        0.0382
     28 C          59.3818   89.1873    6.2635 C.ar    1  UNL1        0.0176
     29 O          59.6998   88.1628   10.0843 O.3     1  UNL1       -0.4727
     30 C          60.1937   86.7566   10.2534 C.3     1  UNL1        0.2374
     31 C          61.3485   86.4720   11.1675 C.3     1  UNL1        0.1909
     32 C          62.3326   87.4791   11.6846 C.3     1  UNL1        0.1783
     33 O          63.3142   86.7600   12.5617 O.3     1  UNL1       -0.3281
     34 C          62.9367   85.3084   12.5867 C.3     1  UNL1        0.2082
     35 C          64.1245   85.1772   13.4932 C.3     1  UNL1        0.0663
     36 O          61.7218   85.1305   11.7251 O.3     1  UNL1       -0.3269
     37 C          62.8075   83.8295   12.8013 C.ar    1  UNL1        0.0390
     38 C          62.1991   83.3057   14.0684 C.ar    1  UNL1        0.0021
     39 C          62.0700   81.8267   14.2829 C.ar    1  UNL1        0.0113
     40 C          62.5493   80.8716   13.2303 C.ar    1  UNL1        0.0585
     41 CL         62.4201   79.3926   13.4449 Cl      1  UNL1       -0.0822
     42 C          63.1577   81.3953   11.9633 C.ar    1  UNL1        0.0226
     43 C          63.2868   82.8743   11.7487 C.ar    1  UNL1        0.0590
     44 CL         63.8952   83.3980   10.4817 Cl      1  UNL1       -0.0824
@<TRIPOS>BOND
     1    21    22    1
     2    22    19    1
     3    19    20    1
     4    19    13    1
     5    13    14   ar
     6    14    15   ar
     7    15    16   ar
     8    16     7    1
     9     7     8   ar
    10     8     9   ar
    11     9    10   ar
    12    10     1    1
    13     1     2    1
    14     2     3    1
    15     3     4    1
    16     4    23    1
    17    23    24   ar
    18    24    25   ar
    19    25    26   ar
    20    26    29    1
    21    29    30    1
    22    30    31    1
    23    31    32    1
    24    32    33    1
    25    33    34    1
    26    34    35    1
    27    34    37    1
    28    37    38   ar
    29    38    39   ar
    30    39    40   ar
    31    40    41    1
    32    40    42   ar
    33    42    43   ar
    34    43    44    1
    35    34    36    1
    36    26    27   ar
    37    27    28   ar
    38     4     5    1
    39     5     6    1
    40    10    11   ar
    41    11    12   ar
    42    16    17   ar
    43    17    18    2
    44    17    13   ar
    45    12     7   ar
    46     6     1    1
    47    28    23   ar
    48    36    31    1
    49    43    37   ar
@<TRIPOS>MOLECULE
*****
 44 49 0 0 0
SMALL
GASTEIGER

@<TRIPOS>ATOM
      1 N          59.6002   92.0350    3.4779 N.pl3   1  UNL1       -0.3041
      2 C          58.3906   91.6690    4.2859 C.3     1  UNL1        0.1122
      3 C          58.5433   90.8637    5.5422 C.3     1  UNL1        0.1122
      4 N          59.9057   90.4244    5.9905 N.pl3   1  UNL1       -0.3041
      5 C          61.1153   90.7904    5.1825 C.3     1  UNL1        0.1122
      6 C          60.9626   91.5957    3.9262 C.3     1  UNL1        0.1122
      7 C          59.1422   94.4508   -0.2908 C.ar    1  UNL1        0.0699
      8 C          59.9901   94.9681    0.8332 C.ar    1  UNL1        0.0190
      9 C          60.1428   94.1628    2.0894 C.ar    1  UNL1        0.0160
     10 C          59.4475   92.8403    2.2216 C.ar    1  UNL1        0.0480
     11 C          58.5996   92.3230    1.0976 C.ar    1  UNL1        0.0160
     12 C          58.4469   93.1283   -0.1586 C.ar    1  UNL1        0.0190
     13 N          59.3386   96.1348   -3.7825 N.ar    1  UNL1       -0.2024
     14 N          58.1703   96.8559   -3.1782 N.ar    1  UNL1       -0.1442
     15 C          57.9545   96.3128   -1.7967 C.ar    1  UNL1        0.2073
     16 N          58.9895   95.2561   -1.5472 N.ar    1  UNL1       -0.2398
     17 C          59.8449   95.1461   -2.7744 C.ar    1  UNL1        0.3522
     18 O          61.0032   94.2116   -2.9609 O.2     1  UNL1       -0.2444
     19 C          59.9018   96.3625   -5.1540 C.3     1  UNL1        0.1099
     20 C          59.0564   96.1002   -6.3649 C.3     1  UNL1        0.0265
     21 C          62.1220   96.4264   -6.5018 C.3     1  UNL1        0.0021
     22 C          61.3104   96.8524   -5.3145 C.3     1  UNL1        0.0245
     23 C          60.0584   89.6191    7.2467 C.ar    1  UNL1        0.0481
     24 C          60.8946   90.1431    8.3764 C.ar    1  UNL1        0.0176
     25 C          61.0473   89.3379    9.6327 C.ar    1  UNL1        0.0382
     26 C          60.3639   88.0086    9.7593 C.ar    1  UNL1        0.1388
     27 C          59.5277   87.4846    8.6295 C.ar    1  UNL1        0.0382
     28 C          59.3750   88.2899    7.3733 C.ar    1  UNL1        0.0176
     29 O          60.5167   87.2034   11.0155 O.3     1  UNL1       -0.4727
     30 C          61.4227   87.6851   12.1096 C.3     1  UNL1        0.2374
     31 C          62.4775   86.7747   12.6652 C.3     1  UNL1        0.1909
     32 C          63.4899   87.1339   13.7121 C.3     1  UNL1        0.1783
     33 O          64.3433   85.9266   13.9654 O.3     1  UNL1       -0.3281
     34 C          63.8583   84.8212   13.0749 C.3     1  UNL1        0.2082
     35 C          64.9580   84.0314   13.7205 C.3     1  UNL1        0.0663
     36 O          62.7052   85.3454   12.2713 O.3     1  UNL1       -0.3269
     37 C          63.6032   83.5507   12.3194 C.ar    1  UNL1        0.0390
     38 C          64.1771   83.3668   10.9458 C.ar    1  UNL1        0.0021
     39 C          63.9221   82.0963   10.1903 C.ar    1  UNL1        0.0113
     40 C          63.0932   81.0097   10.8084 C.ar    1  UNL1        0.0585
     41 CL         62.8382   79.7391   10.0529 Cl      1  UNL1       -0.0822
     42 C          62.5193   81.1935   12.1820 C.ar    1  UNL1        0.0226
     43 C          62.7743   82.4640   12.9376 C.ar    1  UNL1        0.0590
     44 CL         62.2005   82.6479   14.3111 Cl      1  UNL1       -0.0824
@<TRIPOS>BOND
     1    21    22    1
     2    22    19    1
     3    19    20    1
     4    19    13    1
     5    13    14   ar
     6    14    15   ar
     7    15    16   ar
     8    16     7    1
     9     7     8   ar
    10     8     9   ar
    11     9    10   ar
    12    10     1    1
    13     1     2    1
    14     2     3    1
    15     3     4    1
    16     4    23    1
    17    23    24   ar
    18    24    25   ar
    19    25    26   ar
    20    26    29    1
    21    29    30    1
    22    30    31    1
    23    31    32    1
    24    32    33    1
    25    33    34    1
    26    34    35    1
    27    34    37    1
    28    37    38   ar
    29    38    39   ar
    30    39    40   ar
    31    40    41    1
    32    40    42   ar
    33    42    43   ar
    34    43    44    1
    35    34    36    1
    36    26    27   ar
    37    27    28   ar
    38     4     5    1
    39     5     6    1
    40    10    11   ar
    41    11    12   ar
    42    16    17   ar
    43    17    18    2
    44    17    13   ar
    45    12     7   ar
    46     6     1    1
    47    28    23   ar
    48    36    31    1
    49    43    37   ar
@<TRIPOS>MOLECULE
*****
 44 49 0 0 0
SMALL
GASTEIGER

@<TRIPOS>ATOM
      1 N          60.0909   90.7935    5.4399 N.pl3   1  UNL1       -0.3041
      2 C          61.2389   91.2183    4.5730 C.3     1  UNL1        0.1122
      3 C          60.9961   92.1070    3.3892 C.3     1  UNL1        0.1122
      4 N          59.6052   92.5709    3.0724 N.pl3   1  UNL1       -0.3041
      5 C          58.4572   92.1461    3.9394 C.3     1  UNL1        0.1122
      6 C          58.7000   91.2574    5.1231 C.3     1  UNL1        0.1122
      7 C          60.8193   88.1275    8.9912 C.ar    1  UNL1        0.0699
      8 C          61.3851   89.5164    8.9675 C.ar    1  UNL1        0.0190
      9 C          61.1423   90.4051    7.7838 C.ar    1  UNL1        0.0160
     10 C          60.3337   89.9048    6.6237 C.ar    1  UNL1        0.0480
     11 C          59.7678   88.5158    6.6474 C.ar    1  UNL1        0.0160
     12 C          60.0107   87.6272    7.8311 C.ar    1  UNL1        0.0190
     13 N          61.9052   85.4538   11.5870 N.ar    1  UNL1       -0.2024
     14 N          60.9661   86.2886   12.4063 N.ar    1  UNL1       -0.1442
     15 C          60.4451   87.3918   11.5336 C.ar    1  UNL1        0.2073
     16 N          61.0621   87.2388   10.1750 N.ar    1  UNL1       -0.2398
     17 C          61.9645   86.0410   10.2080 C.ar    1  UNL1        0.3522
     18 O          62.7826   85.5217    9.0630 O.2     1  UNL1       -0.2444
     19 C          62.6536   84.2442   12.0631 C.3     1  UNL1        0.1099
     20 C          63.1570   84.1811   13.4747 C.3     1  UNL1        0.0265
     21 C          64.2859   82.8186   10.6301 C.3     1  UNL1        0.0021
     22 C          62.8987   83.0975   11.1276 C.3     1  UNL1        0.0245
     23 C          59.3624   93.4596    1.8887 C.ar    1  UNL1        0.0481
     24 C          58.5653   92.9546    0.7228 C.ar    1  UNL1        0.0176
     25 C          58.3224   93.8433   -0.4610 C.ar    1  UNL1        0.0382
     26 C          58.8767   95.2370   -0.4788 C.ar    1  UNL1        0.1388
     27 C          59.6738   95.7420    0.6872 C.ar    1  UNL1        0.0382
     28 C          59.9166   94.8533    1.8709 C.ar    1  UNL1        0.0176
     29 O          58.6338   96.1257   -1.6625 O.3     1  UNL1       -0.4727
     30 C          59.1670   95.7413   -3.0108 C.3     1  UNL1        0.2374
     31 C          60.5146   95.0928   -3.1274 C.3     1  UNL1        0.1909
     32 C          61.0336   94.3464   -4.3205 C.3     1  UNL1        0.1783
     33 O          62.4195   93.8691   -4.0019 O.3     1  UNL1       -0.3281
     34 C          62.7571   94.3206   -2.6118 C.3     1  UNL1        0.2082
     35 C          64.0619   93.6285   -2.8731 C.3     1  UNL1        0.0663
     36 O          61.5798   95.0769   -2.0714 O.3     1  UNL1       -0.3269
     37 C          63.3674   94.6274   -1.2764 C.ar    1  UNL1        0.0390
     38 C          64.3620   95.7424   -1.1447 C.ar    1  UNL1        0.0021
     39 C          64.9724   96.0492    0.1908 C.ar    1  UNL1        0.0113
     40 C          64.5881   95.2409    1.3945 C.ar    1  UNL1        0.0585
     41 CL         65.1985   95.5477    2.7299 Cl      1  UNL1       -0.0822
     42 C          63.5936   94.1258    1.2628 C.ar    1  UNL1        0.0226
     43 C          62.9831   93.8190   -0.0727 C.ar    1  UNL1        0.0590
     44 CL         61.9886   92.7040   -0.2044 Cl      1  UNL1       -0.0824
@<TRIPOS>BOND
     1    21    22    1
     2    22    19    1
     3    19    20    1
     4    19    13    1
     5    13    14   ar
     6    14    15   ar
     7    15    16   ar
     8    16     7    1
     9     7     8   ar
    10     8     9   ar
    11     9    10   ar
    12    10     1    1
    13     1     2    1
    14     2     3    1
    15     3     4    1
    16     4    23    1
    17    23    24   ar
    18    24    25   ar
    19    25    26   ar
    20    26    29    1
    21    29    30    1
    22    30    31    1
    23    31    32    1
    24    32    33    1
    25    33    34    1
    26    34    35    1
    27    34    37    1
    28    37    38   ar
    29    38    39   ar
    30    39    40   ar
    31    40    41    1
    32    40    42   ar
    33    42    43   ar
    34    43    44    1
    35    34    36    1
    36    26    27   ar
    37    27    28   ar
    38     4     5    1
    39     5     6    1
    40    10    11   ar
    41    11    12   ar
    42    16    17   ar
    43    17    18    2
    44    17    13   ar
    45    12     7   ar
    46     6     1    1
    47    28    23   ar
    48    36    31    1
    49    43    37   ar
@<TRIPOS>MOLECULE
*****
 44 49 0 0 0
SMALL
GASTEIGER

@<TRIPOS>ATOM
      1 N          60.1390   90.6588    5.5410 N.pl3   1  UNL1       -0.3041
      2 C          61.2809   91.0705    4.6599 C.3     1  UNL1        0.1122
      3 C          61.0338   91.9627    3.4797 C.3     1  UNL1        0.1122
      4 N          59.6447   92.4432    3.1806 N.pl3   1  UNL1       -0.3041
      5 C          58.5027   92.0315    4.0618 C.3     1  UNL1        0.1122
      6 C          58.7499   91.1393    5.2419 C.3     1  UNL1        0.1122
      7 C          60.8804   87.9823    9.0817 C.ar    1  UNL1        0.0699
      8 C          61.3416   89.4093    9.1107 C.ar    1  UNL1        0.0190
      9 C          61.0945   90.3014    7.9305 C.ar    1  UNL1        0.0160
     10 C          60.3861   89.7666    6.7213 C.ar    1  UNL1        0.0480
     11 C          59.9249   88.3396    6.6923 C.ar    1  UNL1        0.0160
     12 C          60.1720   87.4474    7.8725 C.ar    1  UNL1        0.0190
     13 N          61.9185   85.2609   11.6473 N.ar    1  UNL1       -0.2024
     14 N          61.0970   86.1734   12.5091 N.ar    1  UNL1       -0.1442
     15 C          60.6082   87.3039   11.6529 C.ar    1  UNL1        0.2073
     16 N          61.1275   87.0901   10.2620 N.ar    1  UNL1       -0.2398
     17 C          61.9373   85.8275   10.2586 C.ar    1  UNL1        0.3522
     18 O          62.6422   85.2353    9.0743 O.2     1  UNL1       -0.2444
     19 C          62.6012   84.0028   12.0956 C.3     1  UNL1        0.1099
     20 C          62.8556   83.7666   13.5549 C.3     1  UNL1        0.0265
     21 C          64.4699   82.8873   10.6767 C.3     1  UNL1        0.0021
     22 C          63.0296   82.9808   11.0847 C.3     1  UNL1        0.0245
     23 C          59.3975   93.3354    2.0004 C.ar    1  UNL1        0.0481
     24 C          59.9526   94.7287    1.9843 C.ar    1  UNL1        0.0176
     25 C          59.7055   95.6210    0.8041 C.ar    1  UNL1        0.0382
     26 C          58.9032   95.1198   -0.3600 C.ar    1  UNL1        0.1388
     27 C          58.3481   93.7263   -0.3439 C.ar    1  UNL1        0.0382
     28 C          58.5953   92.8342    0.8363 C.ar    1  UNL1        0.0176
     29 O          58.6561   96.0120   -1.5402 O.3     1  UNL1       -0.4727
     30 C          59.8057   96.4704   -2.3876 C.3     1  UNL1        0.2374
     31 C          60.0760   95.8088   -3.7065 C.3     1  UNL1        0.1909
     32 C          59.0763   95.0635   -4.5403 C.3     1  UNL1        0.1783
     33 O          59.7758   94.5704   -5.7722 O.3     1  UNL1       -0.3281
     34 C          61.2079   95.0109   -5.6996 C.3     1  UNL1        0.2082
     35 C          61.3270   94.3069   -7.0188 C.3     1  UNL1        0.0663
     36 O          61.3934   95.7762   -4.4230 O.3     1  UNL1       -0.3269
     37 C          62.6648   95.3042   -5.9030 C.ar    1  UNL1        0.0390
     38 C          63.0842   96.4842   -6.7286 C.ar    1  UNL1        0.0021
     39 C          64.5412   96.7775   -6.9319 C.ar    1  UNL1        0.0113
     40 C          65.5787   95.8908   -6.3096 C.ar    1  UNL1        0.0585
     41 CL         67.0356   96.1842   -6.5129 Cl      1  UNL1       -0.0822
     42 C          65.1593   94.7109   -5.4839 C.ar    1  UNL1        0.0226
     43 C          63.7023   94.4175   -5.2806 C.ar    1  UNL1        0.0590
     44 CL         63.2830   93.2376   -4.4549 Cl      1  UNL1       -0.0824
@<TRIPOS>BOND
     1    21    22    1
     2    22    19    1
     3    19    20    1
     4    19    13    1
     5    13    14   ar
     6    14    15   ar
     7    15    16   ar
     8    16     7    1
     9     7     8   ar
    10     8     9   ar
    11     9    10   ar
    12    10     1    1
    13     1     2    1
    14     2     3    1
    15     3     4    1
    16     4    23    1
    17    23    24   ar
    18    24    25   ar
    19    25    26   ar
    20    26    29    1
    21    29    30    1
    22    30    31    1
    23    31    32    1
    24    32    33    1
    25    33    34    1
    26    34    35    1
    27    34    37    1
    28    37    38   ar
    29    38    39   ar
    30    39    40   ar
    31    40    41    1
    32    40    42   ar
    33    42    43   ar
    34    43    44    1
    35    34    36    1
    36    26    27   ar
    37    27    28   ar
    38     4     5    1
    39     5     6    1
    40    10    11   ar
    41    11    12   ar
    42    16    17   ar
    43    17    18    2
    44    17    13   ar
    45    12     7   ar
    46     6     1    1
    47    28    23   ar
    48    36    31    1
    49    43    37   ar
