@<TRIPOS>MOLECULE
*****
 28 31 0 0 0
SMALL
GASTEIGER

@<TRIPOS>ATOM
      1 C          63.8969   87.0746   13.9500 C.3     1  UNL1        0.0795
      2 C          64.0803   88.5625   13.8988 C.3     1  UNL1        0.0178
      3 C          63.5735   89.3405   12.7207 C.3     1  UNL1        0.0029
      4 C          62.8833   88.6306   11.5939 C.3     1  UNL1        0.0178
      5 C          62.6999   87.1428   11.6451 C.3     1  UNL1        0.0799
      6 N          63.2067   86.3648   12.8232 N.3     1  UNL1       -0.1583
      7 C          62.0097   86.4329   10.5183 C.3     1  UNL1        0.0240
      8 C          61.7907   85.5027    9.3621 C.3     1  UNL1        0.0019
      9 C          63.1267   85.5520   10.0423 C.3     1  UNL1        0.0019
     10 C          60.6531   87.0672   10.6030 C.3     1  UNL1        0.0894
     11 C          59.9581   87.5209    9.3535 C.ar    1  UNL1        0.2363
     12 N          60.3221   88.7189    8.5274 N.ar    1  UNL1       -0.1949
     13 C          59.3660   88.7947    7.3742 C.ar    1  UNL1        0.1809
     14 C          59.3650   89.8384    6.2968 C.3     1  UNL1        0.0773
     15 N          58.4110   87.6435    7.4875 N.ar    1  UNL1       -0.0606
     16 O          58.7769   86.8563    8.7108 O.2     1  UNL1       -0.3374
     17 S          63.0233   84.8769   12.8744 S.O2    1  UNL1        0.0632
     18 O          61.6477   85.0660   13.4418 O.2     1  UNL1       -0.1528
     19 O          64.1846   84.3877   12.3901 O.2     1  UNL1       -0.1528
     20 C          62.8399   83.3891   12.9257 C.ar    1  UNL1        0.1222
     21 C          63.1721   82.5506   11.7270 C.ar    1  UNL1        0.0208
     22 C          62.9887   81.0628   11.7782 C.ar    1  UNL1        0.0128
     23 C          62.4730   80.4133   13.0281 C.ar    1  UNL1        0.0578
     24 CL         62.2895   78.9255   13.0794 Cl      1  UNL1       -0.0822
     25 C          62.1407   81.2516   14.2267 C.ar    1  UNL1        0.0128
     26 C          62.3241   82.7395   14.1756 C.ar    1  UNL1        0.0208
     27 C          63.5481   86.1447   16.3508 C.3     1  UNL1        0.0015
     28 C          64.4037   86.2966   15.1281 C.3     1  UNL1        0.0177
@<TRIPOS>BOND
     1    27    28    1
     2     1    28    1
     3     1     2    1
     4     2     3    1
     5     3     4    1
     6     4     5    1
     7     5     7    1
     8     7    10    1
     9    10    11    1
    10    11    12   ar
    11    12    13   ar
    12    13    14    1
    13    13    15   ar
    14    15    16   ar
    15     7     8    1
    16     8     9    1
    17     5     6    1
    18     6    17    1
    19    17    18    2
    20    17    19    2
    21    17    20    1
    22    20    21   ar
    23    21    22   ar
    24    22    23   ar
    25    23    24    1
    26    23    25   ar
    27    25    26   ar
    28     6     1    1
    29    26    20   ar
    30     9     7    1
    31    16    11   ar
@<TRIPOS>MOLECULE
*****
 28 31 0 0 0
SMALL
GASTEIGER

@<TRIPOS>ATOM
      1 C          59.9599   88.7823    9.0732 C.3     1  UNL1        0.0795
      2 C          59.0469   88.2180    8.0253 C.3     1  UNL1        0.0178
      3 C          59.2271   86.8049    7.5557 C.3     1  UNL1        0.0029
      4 C          60.3202   85.9560    8.1340 C.3     1  UNL1        0.0178
      5 C          61.2332   86.5203    9.1818 C.3     1  UNL1        0.0799
      6 N          61.0530   87.9334    9.6514 N.3     1  UNL1       -0.1583
      7 C          62.3264   85.6714    9.7601 C.3     1  UNL1        0.0240
      8 C          63.6124   84.9060    9.8618 C.3     1  UNL1        0.0019
      9 C          63.2613   85.6168    8.5884 C.3     1  UNL1        0.0019
     10 C          61.7711   85.4312   11.1327 C.3     1  UNL1        0.0894
     11 C          62.4939   84.5268   12.0865 C.ar    1  UNL1        0.2363
     12 N          62.4689   83.0271   12.0701 N.ar    1  UNL1       -0.1949
     13 C          63.3281   82.5368   13.1975 C.ar    1  UNL1        0.1809
     14 C          63.5861   81.1018   13.5499 C.3     1  UNL1        0.0773
     15 N          63.8842   83.7335   13.9108 N.ar    1  UNL1       -0.0606
     16 O          63.3686   84.9634   13.2241 O.2     1  UNL1       -0.3374
     17 S          61.9661   88.4977   10.6993 S.O2    1  UNL1        0.0632
     18 O          62.8570   89.0492    9.6260 O.2     1  UNL1       -0.1528
     19 O          61.3868   88.1389   11.8648 O.2     1  UNL1       -0.1528
     20 C          62.8791   89.0620   11.7471 C.ar    1  UNL1        0.1222
     21 C          63.2851   90.5049   11.6900 C.ar    1  UNL1        0.0208
     22 C          64.1981   91.0692   12.7378 C.ar    1  UNL1        0.0128
     23 C          64.7052   90.1906   13.8428 C.ar    1  UNL1        0.0578
     24 CL         65.6182   90.7548   14.8906 Cl      1  UNL1       -0.0822
     25 C          64.2992   88.7477   13.8999 C.ar    1  UNL1        0.0128
     26 C          63.3862   88.1834   12.8521 C.ar    1  UNL1        0.0208
     27 C          59.4330   90.4711   10.9758 C.3     1  UNL1        0.0015
     28 C          59.7797   90.1955    9.5428 C.3     1  UNL1        0.0177
@<TRIPOS>BOND
     1    27    28    1
     2     1    28    1
     3     1     2    1
     4     2     3    1
     5     3     4    1
     6     4     5    1
     7     5     7    1
     8     7    10    1
     9    10    11    1
    10    11    12   ar
    11    12    13   ar
    12    13    14    1
    13    13    15   ar
    14    15    16   ar
    15     7     8    1
    16     8     9    1
    17     5     6    1
    18     6    17    1
    19    17    18    2
    20    17    19    2
    21    17    20    1
    22    20    21   ar
    23    21    22   ar
    24    22    23   ar
    25    23    24    1
    26    23    25   ar
    27    25    26   ar
    28     6     1    1
    29    26    20   ar
    30     9     7    1
    31    16    11   ar
@<TRIPOS>MOLECULE
*****
 28 31 0 0 0
SMALL
GASTEIGER

@<TRIPOS>ATOM
      1 C          65.5954   91.8953   12.8016 C.3     1  UNL1        0.0795
      2 C          65.9152   92.8452   11.6857 C.3     1  UNL1        0.0178
      3 C          65.0451   92.8881   10.4647 C.3     1  UNL1        0.0029
      4 C          63.8550   91.9811   10.3595 C.3     1  UNL1        0.0178
      5 C          63.5352   91.0312   11.4755 C.3     1  UNL1        0.0799
      6 N          64.4054   90.9883   12.6965 N.3     1  UNL1       -0.1583
      7 C          62.3451   90.1241   11.3704 C.3     1  UNL1        0.0240
      8 C          60.9711   89.5689   11.6025 C.3     1  UNL1        0.0019
      9 C          61.4021   90.8222   12.3049 C.3     1  UNL1        0.0019
     10 C          62.8749   89.1109   10.3993 C.3     1  UNL1        0.0894
     11 C          61.9664   88.0503    9.8519 C.ar    1  UNL1        0.2363
     12 N          60.8314   88.2689    8.8958 N.ar    1  UNL1       -0.1949
     13 C          60.1970   86.9386    8.6174 C.ar    1  UNL1        0.1809
     14 C          59.0254   86.6923    7.7137 C.3     1  UNL1        0.0773
     15 N          60.9399   85.8976    9.4014 N.ar    1  UNL1       -0.0606
     16 O          62.0334   86.5847   10.1643 O.2     1  UNL1       -0.3374
     17 S          64.0854   90.0383   13.8125 S.O2    1  UNL1        0.0632
     18 O          63.5896   91.1833   14.6449 O.2     1  UNL1       -0.1528
     19 O          64.4488   88.8316   13.3284 O.2     1  UNL1       -0.1528
     20 C          63.7655   89.0884   14.9284 C.ar    1  UNL1        0.1222
     21 C          64.0678   87.6267   14.7790 C.ar    1  UNL1        0.0208
     22 C          63.7479   86.6768   15.8949 C.ar    1  UNL1        0.0128
     23 C          63.1257   87.1885   17.1602 C.ar    1  UNL1        0.0578
     24 CL         62.8058   86.2386   18.2761 Cl      1  UNL1       -0.0822
     25 C          62.8235   88.6501   17.3097 C.ar    1  UNL1        0.0128
     26 C          63.1434   89.6001   16.1937 C.ar    1  UNL1        0.0208
     27 C          66.5674   93.0548   14.9137 C.3     1  UNL1        0.0015
     28 C          66.4656   91.8524   14.0227 C.3     1  UNL1        0.0177
@<TRIPOS>BOND
     1    27    28    1
     2     1    28    1
     3     1     2    1
     4     2     3    1
     5     3     4    1
     6     4     5    1
     7     5     7    1
     8     7    10    1
     9    10    11    1
    10    11    12   ar
    11    12    13   ar
    12    13    14    1
    13    13    15   ar
    14    15    16   ar
    15     7     8    1
    16     8     9    1
    17     5     6    1
    18     6    17    1
    19    17    18    2
    20    17    19    2
    21    17    20    1
    22    20    21   ar
    23    21    22   ar
    24    22    23   ar
    25    23    24    1
    26    23    25   ar
    27    25    26   ar
    28     6     1    1
    29    26    20   ar
    30     9     7    1
    31    16    11   ar
@<TRIPOS>MOLECULE
*****
 28 31 0 0 0
SMALL
GASTEIGER

@<TRIPOS>ATOM
      1 C          63.0651   85.6727   12.5450 C.3     1  UNL1        0.0795
      2 C          63.9045   85.2523   13.7148 C.3     1  UNL1        0.0178
      3 C          64.5441   86.2890   14.5902 C.3     1  UNL1        0.0029
      4 C          64.3442   87.7462   14.2956 C.3     1  UNL1        0.0178
      5 C          63.5048   88.1666   13.1258 C.3     1  UNL1        0.0799
      6 N          62.8653   87.1299   12.2505 N.3     1  UNL1       -0.1583
      7 C          63.3049   89.6238   12.8312 C.3     1  UNL1        0.0240
      8 C          63.2681   90.9159   12.0703 C.3     1  UNL1        0.0019
      9 C          63.7053   89.6547   11.3859 C.3     1  UNL1        0.0019
     10 C          62.8351   90.0988   14.1742 C.3     1  UNL1        0.0894
     11 C          63.7268   90.9595   15.0193 C.ar    1  UNL1        0.2363
     12 N          65.1539   91.3117   14.7199 N.ar    1  UNL1       -0.1949
     13 C          65.6571   92.1889   15.8276 C.ar    1  UNL1        0.1809
     14 C          67.0344   92.7735   15.9329 C.3     1  UNL1        0.0773
     15 N          64.5410   92.3790   16.8117 N.ar    1  UNL1       -0.0606
     16 O          63.3480   91.6192   16.3120 O.2     1  UNL1       -0.3374
     17 S          62.0258   87.5504   11.0805 S.O2    1  UNL1        0.0632
     18 O          60.8865   87.8548   12.0075 O.2     1  UNL1       -0.1528
     19 O          62.8380   87.3760   10.0163 O.2     1  UNL1       -0.1528
     20 C          61.1864   87.9708    9.9107 C.ar    1  UNL1        0.1222
     21 C          60.9191   89.4261    9.6639 C.ar    1  UNL1        0.0208
     22 C          60.0797   89.8466    8.4940 C.ar    1  UNL1        0.0128
     23 C          59.5075   88.8118    7.5711 C.ar    1  UNL1        0.0578
     24 CL         58.6680   89.2323    6.4012 Cl      1  UNL1       -0.0822
     25 C          59.7747   87.3567    7.8179 C.ar    1  UNL1        0.0128
     26 C          60.6141   86.9361    8.9877 C.ar    1  UNL1        0.0208
     27 C          63.2543   83.5271   11.0922 C.3     1  UNL1        0.0015
     28 C          62.4256   84.6360   11.6696 C.3     1  UNL1        0.0177
@<TRIPOS>BOND
     1    27    28    1
     2     1    28    1
     3     1     2    1
     4     2     3    1
     5     3     4    1
     6     4     5    1
     7     5     7    1
     8     7    10    1
     9    10    11    1
    10    11    12   ar
    11    12    13   ar
    12    13    14    1
    13    13    15   ar
    14    15    16   ar
    15     7     8    1
    16     8     9    1
    17     5     6    1
    18     6    17    1
    19    17    18    2
    20    17    19    2
    21    17    20    1
    22    20    21   ar
    23    21    22   ar
    24    22    23   ar
    25    23    24    1
    26    23    25   ar
    27    25    26   ar
    28     6     1    1
    29    26    20   ar
    30     9     7    1
    31    16    11   ar
@<TRIPOS>MOLECULE
*****
 28 31 0 0 0
SMALL
GASTEIGER

@<TRIPOS>ATOM
      1 C          64.0478   86.7999   14.2516 C.3     1  UNL1        0.0795
      2 C          64.2862   88.2808   14.2517 C.3     1  UNL1        0.0178
      3 C          63.8097   89.1173   13.1014 C.3     1  UNL1        0.0029
      4 C          63.0948   88.4728   11.9510 C.3     1  UNL1        0.0178
      5 C          62.8563   86.9919   11.9509 C.3     1  UNL1        0.0799
      6 N          63.3329   86.1555   13.1012 N.3     1  UNL1       -0.1583
      7 C          62.1414   86.3474   10.8004 C.3     1  UNL1        0.0240
      8 C          61.9153   85.5560    9.5464 C.3     1  UNL1        0.0019
      9 C          63.3009   85.7004   10.1026 C.3     1  UNL1        0.0019
     10 C          60.7336   86.7707   11.0987 C.3     1  UNL1        0.0894
     11 C          60.3058   88.1856   10.8433 C.ar    1  UNL1        0.2363
     12 N          59.5698   89.0713   11.8045 N.ar    1  UNL1       -0.1949
     13 C          59.3481   90.3963   11.1373 C.ar    1  UNL1        0.1809
     14 C          58.6499   91.5801   11.7381 C.3     1  UNL1        0.0773
     15 N          59.9471   90.3295    9.7637 N.ar    1  UNL1       -0.0606
     16 O          60.5390   88.9632    9.5820 O.2     1  UNL1       -0.3374
     17 S          63.0944   84.6745   13.1010 S.O2    1  UNL1        0.0632
     18 O          61.8030   84.8824   13.8352 O.2     1  UNL1       -0.1528
     19 O          64.1702   84.1705   12.4598 O.2     1  UNL1       -0.1528
     20 C          62.8559   83.1936   13.1009 C.ar    1  UNL1        0.1222
     21 C          62.2439   82.5323   14.3002 C.ar    1  UNL1        0.0208
     22 C          62.0055   81.0514   14.3000 C.ar    1  UNL1        0.0128
     23 C          62.3790   80.2317   13.1006 C.ar    1  UNL1        0.0578
     24 CL         62.1405   78.7508   13.1005 Cl      1  UNL1       -0.0822
     25 C          62.9909   80.8929   11.9014 C.ar    1  UNL1        0.0128
     26 C          63.2294   82.3739   11.9015 C.ar    1  UNL1        0.0208
     27 C          63.6627   85.8013   16.6190 C.3     1  UNL1        0.0015
     28 C          64.5243   85.9634   15.4019 C.3     1  UNL1        0.0177
@<TRIPOS>BOND
     1    27    28    1
     2     1    28    1
     3     1     2    1
     4     2     3    1
     5     3     4    1
     6     4     5    1
     7     5     7    1
     8     7    10    1
     9    10    11    1
    10    11    12   ar
    11    12    13   ar
    12    13    14    1
    13    13    15   ar
    14    15    16   ar
    15     7     8    1
    16     8     9    1
    17     5     6    1
    18     6    17    1
    19    17    18    2
    20    17    19    2
    21    17    20    1
    22    20    21   ar
    23    21    22   ar
    24    22    23   ar
    25    23    24    1
    26    23    25   ar
    27    25    26   ar
    28     6     1    1
    29    26    20   ar
    30     9     7    1
    31    16    11   ar
@<TRIPOS>MOLECULE
*****
 28 31 0 0 0
SMALL
GASTEIGER

@<TRIPOS>ATOM
      1 C          63.0566   85.8192   12.5271 C.3     1  UNL1        0.0795
      2 C          63.8919   85.4511   13.7174 C.3     1  UNL1        0.0178
      3 C          64.4906   86.5263   14.5749 C.3     1  UNL1        0.0029
      4 C          64.2540   87.9697   14.2423 C.3     1  UNL1        0.0178
      5 C          63.4188   88.3378   13.0520 C.3     1  UNL1        0.0799
      6 N          62.8200   87.2626   12.1944 N.3     1  UNL1       -0.1583
      7 C          63.1822   89.7812   12.7193 C.3     1  UNL1        0.0240
      8 C          62.4687   91.0894   12.5467 C.3     1  UNL1        0.0019
      9 C          61.7268   89.8931   13.0649 C.3     1  UNL1        0.0019
     10 C          64.5554   90.1706   12.2581 C.3     1  UNL1        0.0894
     11 C          65.0639   91.5598   12.5061 C.ar    1  UNL1        0.2363
     12 N          65.4199   92.5692   11.4551 N.ar    1  UNL1       -0.1949
     13 C          65.8817   93.8167   12.1480 C.ar    1  UNL1        0.1809
     14 C          66.3346   95.0807   11.4792 C.3     1  UNL1        0.0773
     15 N          65.8113   93.5785   13.6274 N.ar    1  UNL1       -0.0606
     16 O          65.3058   92.1836   13.8486 O.2     1  UNL1       -0.3374
     17 S          61.9847   87.6308   11.0041 S.O2    1  UNL1        0.0632
     18 O          60.7438   87.2570   11.7594 O.2     1  UNL1       -0.1528
     19 O          62.8865   88.0374   10.0854 O.2     1  UNL1       -0.1528
     20 C          61.1494   87.9990    9.8139 C.ar    1  UNL1        0.1222
     21 C          60.5488   86.9237    8.9576 C.ar    1  UNL1        0.0208
     22 C          59.7135   87.2919    7.7674 C.ar    1  UNL1        0.0128
     23 C          59.4787   88.7353    7.4334 C.ar    1  UNL1        0.0578
     24 CL         58.6434   89.1034    6.2432 Cl      1  UNL1       -0.0822
     25 C          60.0793   89.8105    8.2897 C.ar    1  UNL1        0.0128
     26 C          60.9146   89.4423    9.4800 C.ar    1  UNL1        0.0208
     27 C          63.3318   83.9465   10.7475 C.3     1  UNL1        0.0015
     28 C          62.4579   84.7440   11.6695 C.3     1  UNL1        0.0177
@<TRIPOS>BOND
     1    27    28    1
     2     1    28    1
     3     1     2    1
     4     2     3    1
     5     3     4    1
     6     4     5    1
     7     5     7    1
     8     7    10    1
     9    10    11    1
    10    11    12   ar
    11    12    13   ar
    12    13    14    1
    13    13    15   ar
    14    15    16   ar
    15     7     8    1
    16     8     9    1
    17     5     6    1
    18     6    17    1
    19    17    18    2
    20    17    19    2
    21    17    20    1
    22    20    21   ar
    23    21    22   ar
    24    22    23   ar
    25    23    24    1
    26    23    25   ar
    27    25    26   ar
    28     6     1    1
    29    26    20   ar
    30     9     7    1
    31    16    11   ar
@<TRIPOS>MOLECULE
*****
 28 31 0 0 0
SMALL
GASTEIGER

@<TRIPOS>ATOM
      1 C          63.5649   94.2478   -0.2884 C.3     1  UNL1        0.0795
      2 C          64.0935   94.9401   -1.5095 C.3     1  UNL1        0.0178
      3 C          63.1425   95.4823   -2.5350 C.3     1  UNL1        0.0029
      4 C          61.6629   95.3322   -2.3393 C.3     1  UNL1        0.0178
      5 C          61.1344   94.6399   -1.1182 C.3     1  UNL1        0.0799
      6 N          62.0854   94.0977   -0.0927 N.3     1  UNL1       -0.1583
      7 C          59.6548   94.4898   -0.9224 C.3     1  UNL1        0.0240
      8 C          58.2324   94.8422   -0.6019 C.3     1  UNL1        0.0019
      9 C          59.3057   95.8847   -0.4952 C.3     1  UNL1        0.0019
     10 C          59.4901   93.0428   -1.2817 C.3     1  UNL1        0.0894
     11 C          58.1957   92.5572   -1.8637 C.ar    1  UNL1        0.2363
     12 N          57.9043   92.3578   -3.3216 N.ar    1  UNL1       -0.1949
     13 C          56.4940   91.8631   -3.4491 C.ar    1  UNL1        0.1809
     14 C          55.7879   91.5327   -4.7305 C.3     1  UNL1        0.0773
     15 N          55.9137   91.7569   -2.0699 N.ar    1  UNL1       -0.0606
     16 O          56.9654   92.1859   -1.0901 O.2     1  UNL1       -0.3374
     17 S          61.5568   93.4054    1.1285 S.O2    1  UNL1        0.0632
     18 O          61.4533   94.7260    1.8323 O.2     1  UNL1       -0.1528
     19 O          61.5320   92.1014    0.7798 O.2     1  UNL1       -0.1528
     20 C          61.0281   92.7132    2.3497 C.ar    1  UNL1        0.1222
     21 C          59.5831   92.8554    2.7261 C.ar    1  UNL1        0.0208
     22 C          59.0544   92.1631    3.9473 C.ar    1  UNL1        0.0128
     23 C          59.9709   91.3286    4.7921 C.ar    1  UNL1        0.0578
     24 CL         59.4423   90.6364    6.0133 Cl      1  UNL1       -0.0822
     25 C          61.4159   91.1864    4.4158 C.ar    1  UNL1        0.0128
     26 C          61.9446   91.8787    3.1946 C.ar    1  UNL1        0.0208
     27 C          65.0299   94.5968    1.8287 C.3     1  UNL1        0.0015
     28 C          64.5159   93.7056    0.7371 C.3     1  UNL1        0.0177
@<TRIPOS>BOND
     1    27    28    1
     2     1    28    1
     3     1     2    1
     4     2     3    1
     5     3     4    1
     6     4     5    1
     7     5     7    1
     8     7    10    1
     9    10    11    1
    10    11    12   ar
    11    12    13   ar
    12    13    14    1
    13    13    15   ar
    14    15    16   ar
    15     7     8    1
    16     8     9    1
    17     5     6    1
    18     6    17    1
    19    17    18    2
    20    17    19    2
    21    17    20    1
    22    20    21   ar
    23    21    22   ar
    24    22    23   ar
    25    23    24    1
    26    23    25   ar
    27    25    26   ar
    28     6     1    1
    29    26    20   ar
    30     9     7    1
    31    16    11   ar
@<TRIPOS>MOLECULE
*****
 28 31 0 0 0
SMALL
GASTEIGER

@<TRIPOS>ATOM
      1 C          59.6023   95.5587   -4.4599 C.3     1  UNL1        0.0795
      2 C          59.0068   96.0257   -5.7550 C.3     1  UNL1        0.0178
      3 C          57.6114   95.6212   -6.1280 C.3     1  UNL1        0.0029
      4 C          56.8113   94.7497   -5.2058 C.3     1  UNL1        0.0178
      5 C          57.4068   94.2827   -3.9107 C.3     1  UNL1        0.0799
      6 N          58.8022   94.6872   -3.5378 N.3     1  UNL1       -0.1583
      7 C          56.6067   93.4112   -2.9884 C.3     1  UNL1        0.0240
      8 C          55.6542   93.0098   -1.9014 C.3     1  UNL1        0.0019
      9 C          55.8898   94.4621   -2.1936 C.3     1  UNL1        0.0019
     10 C          57.0458   92.0578   -3.4630 C.3     1  UNL1        0.0894
     11 C          56.0527   91.1239   -4.0889 C.ar    1  UNL1        0.2363
     12 N          55.4965   91.2302   -5.4780 N.ar    1  UNL1       -0.1949
     13 C          54.5416   90.0918   -5.6833 C.ar    1  UNL1        0.1809
     14 C          53.7582   89.8123   -6.9315 C.3     1  UNL1        0.0773
     15 N          54.5076   89.2820   -4.4211 N.ar    1  UNL1       -0.0606
     16 O          55.4416   89.9199   -3.4358 O.2     1  UNL1       -0.3374
     17 S          59.3976   94.2202   -2.2426 S.O2    1  UNL1        0.0632
     18 O          58.8092   95.4096   -1.5432 O.2     1  UNL1       -0.1528
     19 O          60.0411   93.0798   -2.5713 O.2     1  UNL1       -0.1528
     20 C          59.9930   93.7532   -0.9474 C.ar    1  UNL1        0.1222
     21 C          59.1640   93.7543    0.3027 C.ar    1  UNL1        0.0208
     22 C          59.7594   93.2873    1.5978 C.ar    1  UNL1        0.0128
     23 C          61.1837   92.8192    1.6429 C.ar    1  UNL1        0.0578
     24 CL         61.7791   92.3523    2.9381 Cl      1  UNL1       -0.0822
     25 C          62.0128   92.8181    0.3929 C.ar    1  UNL1        0.0128
     26 C          61.4174   93.2851   -0.9024 C.ar    1  UNL1        0.0208
     27 C          62.1697   95.3660   -4.8080 C.3     1  UNL1        0.0015
     28 C          60.9977   95.9631   -4.0870 C.3     1  UNL1        0.0177
@<TRIPOS>BOND
     1    27    28    1
     2     1    28    1
     3     1     2    1
     4     2     3    1
     5     3     4    1
     6     4     5    1
     7     5     7    1
     8     7    10    1
     9    10    11    1
    10    11    12   ar
    11    12    13   ar
    12    13    14    1
    13    13    15   ar
    14    15    16   ar
    15     7     8    1
    16     8     9    1
    17     5     6    1
    18     6    17    1
    19    17    18    2
    20    17    19    2
    21    17    20    1
    22    20    21   ar
    23    21    22   ar
    24    22    23   ar
    25    23    24    1
    26    23    25   ar
    27    25    26   ar
    28     6     1    1
    29    26    20   ar
    30     9     7    1
    31    16    11   ar
@<TRIPOS>MOLECULE
*****
 28 31 0 0 0
SMALL
GASTEIGER

@<TRIPOS>ATOM
      1 C          64.2013   87.2984   13.9332 C.3     1  UNL1        0.0795
      2 C          64.4287   88.7808   13.9568 C.3     1  UNL1        0.0178
      3 C          63.7281   89.6630   12.9664 C.3     1  UNL1        0.0029
      4 C          62.8001   89.0627   11.9523 C.3     1  UNL1        0.0178
      5 C          62.5727   87.5803   11.9287 C.3     1  UNL1        0.0799
      6 N          63.2733   86.6981   12.9191 N.3     1  UNL1       -0.1583
      7 C          61.6446   86.9800   10.9146 C.3     1  UNL1        0.0240
      8 C          60.3696   86.5673   10.2407 C.3     1  UNL1        0.0019
      9 C          60.3232   87.3120   11.5420 C.3     1  UNL1        0.0019
     10 C          62.6437   86.4394    9.9350 C.3     1  UNL1        0.0894
     11 C          62.1853   85.9261    8.6022 C.ar    1  UNL1        0.2363
     12 N          62.9622   85.0233    7.6903 N.ar    1  UNL1       -0.1949
     13 C          62.1265   84.7647    6.4719 C.ar    1  UNL1        0.1809
     14 C          62.5158   83.9128    5.3004 C.3     1  UNL1        0.0773
     15 N          60.8331   85.5075    6.6307 N.ar    1  UNL1       -0.0606
     16 O          60.8694   86.2253    7.9474 O.2     1  UNL1       -0.3374
     17 S          63.0458   85.2156   12.8954 S.O2    1  UNL1        0.0632
     18 O          61.8936   85.3773   13.8420 O.2     1  UNL1       -0.1528
     19 O          64.0025   84.7516   12.0636 O.2     1  UNL1       -0.1528
     20 C          62.8183   83.7332   12.8718 C.ar    1  UNL1        0.1222
     21 C          62.4110   83.0168   14.1252 C.ar    1  UNL1        0.0208
     22 C          62.1835   81.5344   14.1015 C.ar    1  UNL1        0.0128
     23 C          62.3633   80.7683   12.8245 C.ar    1  UNL1        0.0578
     24 CL         62.1358   79.2858   12.8008 Cl      1  UNL1       -0.0822
     25 C          62.7706   81.4846   11.5711 C.ar    1  UNL1        0.0128
     26 C          62.9981   82.9671   11.5948 C.ar    1  UNL1        0.0208
     27 C          64.1472   85.8513   16.0902 C.3     1  UNL1        0.0015
     28 C          64.9019   86.4162   14.9236 C.3     1  UNL1        0.0177
@<TRIPOS>BOND
     1    27    28    1
     2     1    28    1
     3     1     2    1
     4     2     3    1
     5     3     4    1
     6     4     5    1
     7     5     7    1
     8     7    10    1
     9    10    11    1
    10    11    12   ar
    11    12    13   ar
    12    13    14    1
    13    13    15   ar
    14    15    16   ar
    15     7     8    1
    16     8     9    1
    17     5     6    1
    18     6    17    1
    19    17    18    2
    20    17    19    2
    21    17    20    1
    22    20    21   ar
    23    21    22   ar
    24    22    23   ar
    25    23    24    1
    26    23    25   ar
    27    25    26   ar
    28     6     1    1
    29    26    20   ar
    30     9     7    1
    31    16    11   ar
