@<TRIPOS>MOLECULE
*****
 26 29 0 0 0
SMALL
GASTEIGER

@<TRIPOS>ATOM
      1 C          63.9126   91.2114   11.9093 C.3     1  UNL1        0.1490
      2 N          65.8159   92.4229   13.1978 N.am    1  UNL1       -0.2396
      3 C          64.5597   91.6032   13.2047 C.2     1  UNL1        0.2421
      4 O          63.9506   91.1751   14.5069 O.2     1  UNL1       -0.2735
      5 C          68.8006   92.5262    8.8433 C.3     1  UNL1        0.0527
      6 C          67.7969   92.8984    9.8940 C.ar    1  UNL1        0.0678
      7 C          66.9276   94.1209    9.8892 C.ar    1  UNL1        0.0528
      8 S          66.0797   94.0915   11.1262 S.2     1  UNL1       -0.0510
      9 C          66.4250   92.8510   11.8956 C.ar    1  UNL1        0.1685
     10 N          67.4862   92.1136   11.1340 N.ar    1  UNL1       -0.2281
     11 C          66.4629   92.8147   14.4931 C.3     1  UNL1        0.0817
     12 C          67.5410   93.5444   15.2382 C.3     1  UNL1        0.0220
     13 C          66.5054   92.7634   15.9916 C.3     1  UNL1        0.0220
     14 S          62.6528   90.3974   11.9164 S.3     1  UNL1       -0.0834
     15 C          62.7278   88.8992   11.9123 C.ar    1  UNL1        0.1288
     16 C          62.1339   88.1216   10.7754 C.ar    1  UNL1        0.0289
     17 C          62.2090   86.6235   10.7713 C.ar    1  UNL1        0.0230
     18 C          62.8778   85.9030   11.9042 C.ar    1  UNL1        0.1029
     19 N          63.4717   86.6806   13.0411 N.ar    1  UNL1       -0.1475
     20 N          63.3967   88.1787   13.0452 N.ar    1  UNL1       -0.1417
     21 C          62.9529   84.4048   11.9001 C.ar    1  UNL1        0.0194
     22 C          62.4456   83.6253   13.0769 C.ar    1  UNL1        0.0016
     23 C          62.5206   82.1271   13.0728 C.ar    1  UNL1        0.0000
     24 C          63.1029   81.4086   11.8918 C.ar    1  UNL1        0.0000
     25 C          63.6101   82.1882   10.7150 C.ar    1  UNL1        0.0000
     26 C          63.5351   83.6863   10.7191 C.ar    1  UNL1        0.0016
@<TRIPOS>BOND
     1     5     6    1
     2     6     7   ar
     3     7     8   ar
     4     8     9   ar
     5     9     2    1
     6     2     3   am
     7     3     4    2
     8     3     1    1
     9     1    14    1
    10    14    15    1
    11    15    16   ar
    12    16    17   ar
    13    17    18   ar
    14    18    21    1
    15    21    22   ar
    16    22    23   ar
    17    23    24   ar
    18    24    25   ar
    19    25    26   ar
    20    18    19   ar
    21    19    20   ar
    22     2    11    1
    23    11    12    1
    24    12    13    1
    25     9    10   ar
    26    10     6   ar
    27    20    15   ar
    28    13    11    1
    29    26    21   ar
@<TRIPOS>MOLECULE
*****
 26 29 0 0 0
SMALL
GASTEIGER

@<TRIPOS>ATOM
      1 C          60.6372   88.2595   11.3058 C.3     1  UNL1        0.1490
      2 N          61.7911   86.3740    9.9407 N.am    1  UNL1       -0.2396
      3 C          60.9003   87.5796    9.9948 C.2     1  UNL1        0.2421
      4 O          60.2726   88.1054    8.7380 O.2     1  UNL1       -0.2735
      5 C          64.2235   86.1397   14.6214 C.3     1  UNL1        0.0527
      6 C          63.5369   85.7404   13.3490 C.ar    1  UNL1        0.0678
      7 C          63.2326   84.3375   12.9140 C.ar    1  UNL1        0.0528
      8 S          62.5416   84.4041   11.5843 S.2     1  UNL1       -0.0510
      9 C          62.4188   85.8481   11.1974 C.ar    1  UNL1        0.1685
     10 N          63.0339   86.6740   12.2881 N.ar    1  UNL1       -0.2281
     11 C          62.0541   85.6942    8.6297 C.3     1  UNL1        0.0817
     12 C          62.9838   84.9564    7.7125 C.3     1  UNL1        0.0220
     13 C          61.5800   85.2545    7.2762 C.3     1  UNL1        0.0220
     14 S          60.8777   89.7332   11.4480 S.3     1  UNL1       -0.0834
     15 C          62.1167   90.2283   12.1336 C.ar    1  UNL1        0.1288
     16 C          63.1077   91.0646   11.3798 C.ar    1  UNL1        0.0289
     17 C          64.3466   91.5596   12.0654 C.ar    1  UNL1        0.0230
     18 C          64.5944   91.2183   13.5049 C.ar    1  UNL1        0.1029
     19 N          63.6033   90.3820   14.2587 N.ar    1  UNL1       -0.1475
     20 N          62.3644   89.8870   13.5731 N.ar    1  UNL1       -0.1417
     21 C          65.8333   91.7134   14.1905 C.ar    1  UNL1        0.0194
     22 C          67.1479   91.6959   13.4685 C.ar    1  UNL1        0.0016
     23 C          68.3869   92.1910   14.1541 C.ar    1  UNL1        0.0000
     24 C          68.3111   92.7036   15.5618 C.ar    1  UNL1        0.0000
     25 C          66.9963   92.7211   16.2838 C.ar    1  UNL1        0.0000
     26 C          65.7575   92.2261   15.5982 C.ar    1  UNL1        0.0016
@<TRIPOS>BOND
     1     5     6    1
     2     6     7   ar
     3     7     8   ar
     4     8     9   ar
     5     9     2    1
     6     2     3   am
     7     3     4    2
     8     3     1    1
     9     1    14    1
    10    14    15    1
    11    15    16   ar
    12    16    17   ar
    13    17    18   ar
    14    18    21    1
    15    21    22   ar
    16    22    23   ar
    17    23    24   ar
    18    24    25   ar
    19    25    26   ar
    20    18    19   ar
    21    19    20   ar
    22     2    11    1
    23    11    12    1
    24    12    13    1
    25     9    10   ar
    26    10     6   ar
    27    20    15   ar
    28    13    11    1
    29    26    21   ar
@<TRIPOS>MOLECULE
*****
 26 29 0 0 0
SMALL
GASTEIGER

@<TRIPOS>ATOM
      1 C          63.9298   90.7569   12.0888 C.3     1  UNL1        0.1490
      2 N          65.4862   92.7592   11.5242 N.am    1  UNL1       -0.2396
      3 C          64.3312   91.8710   11.1679 C.2     1  UNL1        0.2421
      4 O          63.5776   92.0967    9.8908 O.2     1  UNL1       -0.2735
      5 C          66.7644   92.6340   16.6459 C.3     1  UNL1        0.0527
      6 C          66.8274   92.4760   15.1556 C.ar    1  UNL1        0.0678
      7 C          67.9717   91.8964   14.3779 C.ar    1  UNL1        0.0528
      8 S          67.6085   91.9320   12.9230 S.2     1  UNL1       -0.0510
      9 C          66.2398   92.5335   12.8014 C.ar    1  UNL1        0.1685
     10 N          65.7570   92.8697   14.1812 N.ar    1  UNL1       -0.2281
     11 C          65.8875   93.8732   10.6034 C.3     1  UNL1        0.0817
     12 C          66.6833   94.3672    9.4318 C.3     1  UNL1        0.0220
     13 C          65.7869   95.3087   10.1801 C.3     1  UNL1        0.0220
     14 S          62.7024   89.9464   11.7949 S.3     1  UNL1       -0.0834
     15 C          62.7336   88.4548   11.9502 C.ar    1  UNL1        0.1288
     16 C          62.0281   87.5822   10.9548 C.ar    1  UNL1        0.0289
     17 C          62.0593   86.0906   11.1101 C.ar    1  UNL1        0.0230
     18 C          62.7961   85.4716   12.2608 C.ar    1  UNL1        0.1029
     19 N          63.5016   86.3442   13.2562 N.ar    1  UNL1       -0.1475
     20 N          63.4703   87.8358   13.1009 N.ar    1  UNL1       -0.1417
     21 C          62.8273   83.9799   12.4161 C.ar    1  UNL1        0.0194
     22 C          63.1283   83.1088   11.2327 C.ar    1  UNL1        0.0016
     23 C          63.1596   81.6172   11.3879 C.ar    1  UNL1        0.0000
     24 C          62.8897   80.9967   12.7267 C.ar    1  UNL1        0.0000
     25 C          62.5887   81.8679   13.9101 C.ar    1  UNL1        0.0000
     26 C          62.5575   83.3595   13.7548 C.ar    1  UNL1        0.0016
@<TRIPOS>BOND
     1     5     6    1
     2     6     7   ar
     3     7     8   ar
     4     8     9   ar
     5     9     2    1
     6     2     3   am
     7     3     4    2
     8     3     1    1
     9     1    14    1
    10    14    15    1
    11    15    16   ar
    12    16    17   ar
    13    17    18   ar
    14    18    21    1
    15    21    22   ar
    16    22    23   ar
    17    23    24   ar
    18    24    25   ar
    19    25    26   ar
    20    18    19   ar
    21    19    20   ar
    22     2    11    1
    23    11    12    1
    24    12    13    1
    25     9    10   ar
    26    10     6   ar
    27    20    15   ar
    28    13    11    1
    29    26    21   ar
@<TRIPOS>MOLECULE
*****
 26 29 0 0 0
SMALL
GASTEIGER

@<TRIPOS>ATOM
      1 C          61.5389   86.6891   11.5381 C.3     1  UNL1        0.1490
      2 N          62.8845   84.4698   11.6589 N.am    1  UNL1       -0.2396
      3 C          62.2345   85.5524   10.8494 C.2     1  UNL1        0.2421
      4 O          62.2800   85.4985    9.3510 O.2     1  UNL1       -0.2735
      5 C          63.5583   86.0573   16.6496 C.3     1  UNL1        0.0527
      6 C          63.1487   85.2534   15.4513 C.ar    1  UNL1        0.0678
      7 C          62.3891   83.9602   15.4748 C.ar    1  UNL1        0.0528
      8 S          62.1977   83.5093   14.0570 S.2     1  UNL1       -0.0510
      9 C          62.8389   84.5238   13.1573 C.ar    1  UNL1        0.1685
     10 N          63.4267   85.6017   14.0190 N.ar    1  UNL1       -0.2281
     11 C          63.5800   83.3333   10.9702 C.3     1  UNL1        0.0817
     12 C          64.8459   82.6657   10.5211 C.3     1  UNL1        0.0220
     13 C          63.5187   82.0322   10.2262 C.3     1  UNL1        0.0220
     14 S          61.8182   88.1025   11.1210 S.3     1  UNL1       -0.0834
     15 C          62.7882   88.9376   11.9033 C.ar    1  UNL1        0.1288
     16 C          63.1147   90.3298   11.4503 C.ar    1  UNL1        0.0289
     17 C          64.0846   91.1648   12.2325 C.ar    1  UNL1        0.0230
     18 C          64.7281   90.6077   13.4677 C.ar    1  UNL1        0.1029
     19 N          64.4015   89.2155   13.9206 N.ar    1  UNL1       -0.1475
     20 N          63.4316   88.3805   13.1384 N.ar    1  UNL1       -0.1417
     21 C          65.6981   91.4427   14.2499 C.ar    1  UNL1        0.0194
     22 C          67.0399   91.7762   13.6683 C.ar    1  UNL1        0.0016
     23 C          68.0099   92.6113   14.4505 C.ar    1  UNL1        0.0000
     24 C          67.6380   93.1129   15.8144 C.ar    1  UNL1        0.0000
     25 C          66.2961   92.7794   16.3960 C.ar    1  UNL1        0.0000
     26 C          65.3262   91.9443   15.6138 C.ar    1  UNL1        0.0016
@<TRIPOS>BOND
     1     5     6    1
     2     6     7   ar
     3     7     8   ar
     4     8     9   ar
     5     9     2    1
     6     2     3   am
     7     3     4    2
     8     3     1    1
     9     1    14    1
    10    14    15    1
    11    15    16   ar
    12    16    17   ar
    13    17    18   ar
    14    18    21    1
    15    21    22   ar
    16    22    23   ar
    17    23    24   ar
    18    24    25   ar
    19    25    26   ar
    20    18    19   ar
    21    19    20   ar
    22     2    11    1
    23    11    12    1
    24    12    13    1
    25     9    10   ar
    26    10     6   ar
    27    20    15   ar
    28    13    11    1
    29    26    21   ar
@<TRIPOS>MOLECULE
*****
 26 29 0 0 0
SMALL
GASTEIGER

@<TRIPOS>ATOM
      1 C          62.7475   88.4535   11.9797 C.3     1  UNL1        0.1490
      2 N          62.7358   85.8698   11.7065 N.am    1  UNL1       -0.2396
      3 C          63.0960   87.0905   12.5002 C.2     1  UNL1        0.2421
      4 O          63.8048   86.9483   13.8145 O.2     1  UNL1       -0.2735
      5 C          59.0488   86.9291    8.0781 C.3     1  UNL1        0.0527
      6 C          60.3323   86.4990    8.7243 C.ar    1  UNL1        0.0678
      7 C          61.5403   85.9629    8.0149 C.ar    1  UNL1        0.0528
      8 S          62.5877   85.6620    9.0456 S.2     1  UNL1       -0.0510
      9 C          62.0270   86.0121   10.3921 C.ar    1  UNL1        0.1685
     10 N          60.6331   86.5293   10.1935 N.ar    1  UNL1       -0.2281
     11 C          63.0843   84.5070   12.2270 C.3     1  UNL1        0.0817
     12 C          62.6882   83.2487   12.9411 C.3     1  UNL1        0.0220
     13 C          64.0840   83.4045   12.4145 C.3     1  UNL1        0.0220
     14 S          62.9971   89.6662   12.8265 S.3     1  UNL1       -0.0834
     15 C          63.7544   90.8318   12.2626 C.ar    1  UNL1        0.1288
     16 C          63.6510   91.1575   10.8021 C.ar    1  UNL1        0.0289
     17 C          64.4083   92.3231   10.2382 C.ar    1  UNL1        0.0230
     18 C          65.2689   93.1629   11.1349 C.ar    1  UNL1        0.1029
     19 N          65.3722   92.8372   12.5954 N.ar    1  UNL1       -0.1475
     20 N          64.6150   91.6716   13.1593 N.ar    1  UNL1       -0.1417
     21 C          66.0261   94.3286   10.5710 C.ar    1  UNL1        0.0194
     22 C          66.9301   94.1350    9.3898 C.ar    1  UNL1        0.0016
     23 C          67.6874   95.3006    8.8259 C.ar    1  UNL1        0.0000
     24 C          67.5406   96.6598    9.4432 C.ar    1  UNL1        0.0000
     25 C          66.6365   96.8534   10.6244 C.ar    1  UNL1        0.0000
     26 C          65.8793   95.6878   11.1883 C.ar    1  UNL1        0.0016
@<TRIPOS>BOND
     1     5     6    1
     2     6     7   ar
     3     7     8   ar
     4     8     9   ar
     5     9     2    1
     6     2     3   am
     7     3     4    2
     8     3     1    1
     9     1    14    1
    10    14    15    1
    11    15    16   ar
    12    16    17   ar
    13    17    18   ar
    14    18    21    1
    15    21    22   ar
    16    22    23   ar
    17    23    24   ar
    18    24    25   ar
    19    25    26   ar
    20    18    19   ar
    21    19    20   ar
    22     2    11    1
    23    11    12    1
    24    12    13    1
    25     9    10   ar
    26    10     6   ar
    27    20    15   ar
    28    13    11    1
    29    26    21   ar
@<TRIPOS>MOLECULE
*****
 26 29 0 0 0
SMALL
GASTEIGER

@<TRIPOS>ATOM
      1 C          63.5673   90.4488   15.7411 C.3     1  UNL1        0.1490
      2 N          63.9843   90.9467   13.2255 N.am    1  UNL1       -0.2396
      3 C          63.1284   90.3613   14.3093 C.2     1  UNL1        0.2421
      4 O          61.8338   89.6884   13.9615 O.2     1  UNL1       -0.2735
      5 C          68.5185   92.1694   15.6393 C.3     1  UNL1        0.0527
      6 C          67.3631   92.1817   14.6828 C.ar    1  UNL1        0.0678
      7 C          67.1794   93.1287   13.5342 C.ar    1  UNL1        0.0528
      8 S          65.8914   92.7814   12.8485 S.2     1  UNL1       -0.0510
      9 C          65.2790   91.6197   13.5733 C.ar    1  UNL1        0.1685
     10 N          66.1886   91.2490   14.7070 N.ar    1  UNL1       -0.2281
     11 C          63.5454   90.8592   11.7938 C.3     1  UNL1        0.0817
     12 C          63.4213   91.4779   10.4330 C.3     1  UNL1        0.0220
     13 C          62.9094   90.0889   10.6749 C.3     1  UNL1        0.0220
     14 S          63.4290   89.2576   16.6420 S.3     1  UNL1       -0.0834
     15 C          63.4032   87.8755   16.0594 C.ar    1  UNL1        0.1288
     16 C          64.2966   87.5316   14.9047 C.ar    1  UNL1        0.0289
     17 C          64.2707   86.1496   14.3221 C.ar    1  UNL1        0.0230
     18 C          63.3514   85.1116   14.8943 C.ar    1  UNL1        0.1029
     19 N          62.4580   85.4555   16.0490 N.ar    1  UNL1       -0.1475
     20 N          62.4839   86.8375   16.6316 N.ar    1  UNL1       -0.1417
     21 C          63.3256   83.7295   14.3117 C.ar    1  UNL1        0.0194
     22 C          64.3596   83.3206   13.3050 C.ar    1  UNL1        0.0016
     23 C          64.3337   81.9385   12.7223 C.ar    1  UNL1        0.0000
     24 C          63.2738   80.9655   13.1465 C.ar    1  UNL1        0.0000
     25 C          62.2398   81.3746   14.1533 C.ar    1  UNL1        0.0000
     26 C          62.2657   82.7565   14.7358 C.ar    1  UNL1        0.0016
@<TRIPOS>BOND
     1     5     6    1
     2     6     7   ar
     3     7     8   ar
     4     8     9   ar
     5     9     2    1
     6     2     3   am
     7     3     4    2
     8     3     1    1
     9     1    14    1
    10    14    15    1
    11    15    16   ar
    12    16    17   ar
    13    17    18   ar
    14    18    21    1
    15    21    22   ar
    16    22    23   ar
    17    23    24   ar
    18    24    25   ar
    19    25    26   ar
    20    18    19   ar
    21    19    20   ar
    22     2    11    1
    23    11    12    1
    24    12    13    1
    25     9    10   ar
    26    10     6   ar
    27    20    15   ar
    28    13    11    1
    29    26    21   ar
@<TRIPOS>MOLECULE
*****
 26 29 0 0 0
SMALL
GASTEIGER

@<TRIPOS>ATOM
      1 C          63.5600   88.2889   12.8468 C.3     1  UNL1        0.1490
      2 N          62.9193   85.7716   12.8992 N.am    1  UNL1       -0.2396
      3 C          63.5519   86.9649   13.5517 C.2     1  UNL1        0.2421
      4 O          64.1765   86.8342   14.9092 O.2     1  UNL1       -0.2735
      5 C          59.7135   87.2320    8.9658 C.3     1  UNL1        0.0527
      6 C          60.8211   86.5736    9.7337 C.ar    1  UNL1        0.0678
      7 C          61.8459   85.6334    9.1717 C.ar    1  UNL1        0.0528
      8 S          62.7565   85.2185   10.2891 S.2     1  UNL1       -0.0510
      9 C          62.2947   85.9023   11.5417 C.ar    1  UNL1        0.1685
     10 N          61.0985   86.7398   11.1984 N.ar    1  UNL1       -0.2281
     11 C          62.9112   84.4477   13.6041 C.3     1  UNL1        0.0817
     12 C          63.1064   82.9607   13.5777 C.3     1  UNL1        0.0220
     13 C          62.7021   83.6415   14.8517 C.3     1  UNL1        0.0220
     14 S          63.8508   89.5450   13.6133 S.3     1  UNL1       -0.0834
     15 C          64.4425   90.7317   12.9120 C.ar    1  UNL1        0.1288
     16 C          65.5099   91.5441   13.5832 C.ar    1  UNL1        0.0289
     17 C          66.1015   92.7308   12.8818 C.ar    1  UNL1        0.0230
     18 C          65.6257   93.1050   11.5094 C.ar    1  UNL1        0.1029
     19 N          64.5582   92.2925   10.8383 N.ar    1  UNL1       -0.1475
     20 N          63.9666   91.1059   11.5396 N.ar    1  UNL1       -0.1417
     21 C          66.2173   94.2917   10.8081 C.ar    1  UNL1        0.0194
     22 C          66.0190   95.6692   11.3676 C.ar    1  UNL1        0.0016
     23 C          66.6107   96.8559   10.6663 C.ar    1  UNL1        0.0000
     24 C          67.4006   96.6650    9.4055 C.ar    1  UNL1        0.0000
     25 C          67.5989   95.2874    8.8460 C.ar    1  UNL1        0.0000
     26 C          67.0073   94.1008    9.5473 C.ar    1  UNL1        0.0016
@<TRIPOS>BOND
     1     5     6    1
     2     6     7   ar
     3     7     8   ar
     4     8     9   ar
     5     9     2    1
     6     2     3   am
     7     3     4    2
     8     3     1    1
     9     1    14    1
    10    14    15    1
    11    15    16   ar
    12    16    17   ar
    13    17    18   ar
    14    18    21    1
    15    21    22   ar
    16    22    23   ar
    17    23    24   ar
    18    24    25   ar
    19    25    26   ar
    20    18    19   ar
    21    19    20   ar
    22     2    11    1
    23    11    12    1
    24    12    13    1
    25     9    10   ar
    26    10     6   ar
    27    20    15   ar
    28    13    11    1
    29    26    21   ar
@<TRIPOS>MOLECULE
*****
 26 29 0 0 0
SMALL
GASTEIGER

@<TRIPOS>ATOM
      1 C          61.9853   88.7451   10.3554 C.3     1  UNL1        0.1490
      2 N          62.3274   86.1956   10.7199 N.am    1  UNL1       -0.2396
      3 C          62.4268   87.6047   11.2242 C.2     1  UNL1        0.2421
      4 O          62.9676   87.8736   12.5972 O.2     1  UNL1       -0.2735
      5 C          61.8705   84.4630    5.7530 C.3     1  UNL1        0.0527
      6 C          61.5766   85.1303    7.0638 C.ar    1  UNL1        0.0678
      7 C          60.3322   85.8956    7.4041 C.ar    1  UNL1        0.0528
      8 S          60.4620   86.3877    8.8151 S.2     1  UNL1       -0.0510
      9 C          61.7866   85.9267    9.3468 C.ar    1  UNL1        0.1685
     10 N          62.4755   85.1496    8.2645 N.ar    1  UNL1       -0.2281
     11 C          62.7689   85.0553   11.5886 C.3     1  UNL1        0.0817
     12 C          63.6260   83.8436   11.8055 C.3     1  UNL1        0.0220
     13 C          62.6764   84.2920   12.8766 C.3     1  UNL1        0.0220
     14 S          61.8809   90.1275   10.9281 S.3     1  UNL1       -0.0834
     15 C          63.0022   90.6835   11.7549 C.ar    1  UNL1        0.1288
     16 C          64.1311   91.4158   11.0921 C.ar    1  UNL1        0.0289
     17 C          65.2523   91.9718   11.9189 C.ar    1  UNL1        0.0230
     18 C          65.2447   91.7955   13.4085 C.ar    1  UNL1        0.1029
     19 N          64.1158   91.0632   14.0712 N.ar    1  UNL1       -0.1475
     20 N          62.9946   90.5072   13.2445 N.ar    1  UNL1       -0.1417
     21 C          66.3661   92.3515   14.2352 C.ar    1  UNL1        0.0194
     22 C          67.1971   91.4360   15.0844 C.ar    1  UNL1        0.0016
     23 C          68.3185   91.9921   15.9112 C.ar    1  UNL1        0.0000
     24 C          68.6087   93.4636   15.8888 C.ar    1  UNL1        0.0000
     25 C          67.7775   94.3790   15.0395 C.ar    1  UNL1        0.0000
     26 C          66.6562   93.8230   14.2128 C.ar    1  UNL1        0.0016
@<TRIPOS>BOND
     1     5     6    1
     2     6     7   ar
     3     7     8   ar
     4     8     9   ar
     5     9     2    1
     6     2     3   am
     7     3     4    2
     8     3     1    1
     9     1    14    1
    10    14    15    1
    11    15    16   ar
    12    16    17   ar
    13    17    18   ar
    14    18    21    1
    15    21    22   ar
    16    22    23   ar
    17    23    24   ar
    18    24    25   ar
    19    25    26   ar
    20    18    19   ar
    21    19    20   ar
    22     2    11    1
    23    11    12    1
    24    12    13    1
    25     9    10   ar
    26    10     6   ar
    27    20    15   ar
    28    13    11    1
    29    26    21   ar
