@<TRIPOS>MOLECULE
*****
 33 36 0 0 0
SMALL
GASTEIGER

@<TRIPOS>ATOM
      1 C          64.2268   91.1759   15.5867 C.2     1  UNL1        0.2494
      2 O          63.7631   91.8638   16.8364 O.2     1  UNL1       -0.2699
      3 N          64.0512   89.6938   15.4372 N.am    1  UNL1       -0.2660
      4 C          64.5150   89.0058   14.1875 C.3     1  UNL1        0.1160
      5 C          64.3394   87.5236   14.0381 C.3     1  UNL1        0.1197
      6 N          63.7001   86.7294   15.1383 N.am    1  UNL1       -0.2555
      7 C          63.2363   87.4173   16.3879 C.2     1  UNL1        0.2497
      8 O          62.5970   86.6231   17.4881 O.2     1  UNL1       -0.2727
      9 C          63.4119   88.8995   16.5374 C.3     1  UNL1        0.1799
     10 C          66.1448   93.5586   12.2861 C.ar    1  UNL1        0.0685
     11 C          66.5961   93.7437   13.7045 C.ar    1  UNL1        0.0104
     12 C          65.9568   92.9495   14.8047 C.ar    1  UNL1        0.0052
     13 C          64.8661   91.9701   14.4865 C.ar    1  UNL1        0.0536
     14 C          64.4148   91.7850   13.0681 C.ar    1  UNL1        0.0052
     15 C          65.0541   92.5793   11.9679 C.ar    1  UNL1        0.0104
     16 N          67.4234   95.1471   10.0857 N.1     1  UNL1       -0.1908
     17 C          66.7841   94.3529   11.1859 C.1     1  UNL1        0.1004
     18 C          63.5245   85.2472   14.9888 C.ar    1  UNL1        0.0541
     19 C          62.1747   84.6271   15.1968 C.ar    1  UNL1        0.0180
     20 C          61.9992   83.1449   15.0473 C.ar    1  UNL1        0.0382
     21 C          63.1735   82.2829   14.6898 C.ar    1  UNL1        0.1386
     22 C          64.5233   82.9030   14.4817 C.ar    1  UNL1        0.0382
     23 C          64.6988   84.3851   14.6312 C.ar    1  UNL1        0.0180
     24 O          62.9979   80.8007   14.5402 O.3     1  UNL1       -0.4754
     25 C          62.9111   80.1899   13.1730 C.3     1  UNL1        0.2068
     26 C          62.5645   81.0448   11.9903 C.3     1  UNL1        0.0646
     27 C          63.6077   81.9271   11.3712 C.3     1  UNL1        0.0759
     28 N          63.2216   83.2612   10.8045 N.3     1  UNL1       -0.2726
     29 C          62.3879   84.2079   11.6161 C.3     1  UNL1        0.0721
     30 C          62.0017   85.5420   11.0495 C.3     1  UNL1        0.0174
     31 C          62.4493   85.9294    9.6712 C.3     1  UNL1        0.0029
     32 C          63.2830   84.9827    8.8596 C.3     1  UNL1        0.0174
     33 C          63.6692   83.6486    9.4263 C.3     1  UNL1        0.0721
@<TRIPOS>BOND
     1    16    17    3
     2    17    10    1
     3    10    11   ar
     4    11    12   ar
     5    12    13   ar
     6    13     1    1
     7     1     2    2
     8     1     3   am
     9     3     4    1
    10     4     5    1
    11     5     6    1
    12     6    18    1
    13    18    19   ar
    14    19    20   ar
    15    20    21   ar
    16    21    24    1
    17    24    25    1
    18    25    26    1
    19    26    27    1
    20    27    28    1
    21    28    29    1
    22    29    30    1
    23    30    31    1
    24    31    32    1
    25    32    33    1
    26    21    22   ar
    27    22    23   ar
    28     6     7   am
    29     7     8    2
    30     7     9    1
    31    13    14   ar
    32    14    15   ar
    33    15    10   ar
    34     9     3    1
    35    23    18   ar
    36    33    28    1
@<TRIPOS>MOLECULE
*****
 33 36 0 0 0
SMALL
GASTEIGER

@<TRIPOS>ATOM
      1 C          62.1584   95.2493   -1.6793 C.2     1  UNL1        0.2494
      2 O          62.1160   96.7483   -1.7125 O.2     1  UNL1       -0.2699
      3 N          61.6652   94.5116   -0.4699 N.am    1  UNL1       -0.2660
      4 C          61.7076   93.0126   -0.4368 C.3     1  UNL1        0.1160
      5 C          61.2145   92.2749    0.7726 C.3     1  UNL1        0.1197
      6 N          60.6790   93.0363    1.9489 N.am    1  UNL1       -0.2555
      7 C          60.6366   94.5353    1.9157 C.2     1  UNL1        0.2497
      8 O          60.1010   95.2967    3.0920 O.2     1  UNL1       -0.2727
      9 C          61.1297   95.2730    0.7063 C.3     1  UNL1        0.1799
     10 C          63.7650   92.9652   -5.2080 C.ar    1  UNL1        0.0685
     11 C          64.2739   92.6694   -3.8284 C.ar    1  UNL1        0.0104
     12 C          63.7384   93.4308   -2.6522 C.ar    1  UNL1        0.0052
     13 C          62.6939   94.4879   -2.8556 C.ar    1  UNL1        0.0536
     14 C          62.1849   94.7837   -4.2352 C.ar    1  UNL1        0.0052
     15 C          62.7204   94.0223   -5.4114 C.ar    1  UNL1        0.0104
     16 N          64.8360   91.4425   -7.5605 N.1     1  UNL1       -0.1908
     17 C          64.3005   92.2038   -6.3843 C.1     1  UNL1        0.1004
     18 C          60.1858   92.2986    3.1583 C.ar    1  UNL1        0.0541
     19 C          61.1483   91.5224    4.0075 C.ar    1  UNL1        0.0180
     20 C          60.6551   90.7848    5.2169 C.ar    1  UNL1        0.0382
     21 C          59.1995   90.8232    5.5770 C.ar    1  UNL1        0.1386
     22 C          58.2370   91.5994    4.7278 C.ar    1  UNL1        0.0382
     23 C          58.7302   92.3370    3.5184 C.ar    1  UNL1        0.0180
     24 O          58.7063   90.0855    6.7864 O.3     1  UNL1       -0.4754
     25 C          59.5240   88.9721    7.3709 C.3     1  UNL1        0.2068
     26 C          59.9926   89.0527    8.7935 C.3     1  UNL1        0.0646
     27 C          59.8846   87.8533    9.6879 C.3     1  UNL1        0.0759
     28 N          60.9634   86.8111    9.6784 N.3     1  UNL1       -0.2726
     29 C          61.4083   86.1805   10.9647 C.3     1  UNL1        0.0721
     30 C          62.4870   85.1383   10.9552 C.3     1  UNL1        0.0174
     31 C          63.1210   84.7267    9.6595 C.3     1  UNL1        0.0029
     32 C          62.6761   85.3573    8.3733 C.3     1  UNL1        0.0174
     33 C          61.5973   86.3996    8.3827 C.3     1  UNL1        0.0721
@<TRIPOS>BOND
     1    16    17    3
     2    17    10    1
     3    10    11   ar
     4    11    12   ar
     5    12    13   ar
     6    13     1    1
     7     1     2    2
     8     1     3   am
     9     3     4    1
    10     4     5    1
    11     5     6    1
    12     6    18    1
    13    18    19   ar
    14    19    20   ar
    15    20    21   ar
    16    21    24    1
    17    24    25    1
    18    25    26    1
    19    26    27    1
    20    27    28    1
    21    28    29    1
    22    29    30    1
    23    30    31    1
    24    31    32    1
    25    32    33    1
    26    21    22   ar
    27    22    23   ar
    28     6     7   am
    29     7     8    2
    30     7     9    1
    31    13    14   ar
    32    14    15   ar
    33    15    10   ar
    34     9     3    1
    35    23    18   ar
    36    33    28    1
@<TRIPOS>MOLECULE
*****
 33 36 0 0 0
SMALL
GASTEIGER

@<TRIPOS>ATOM
      1 C          62.7103   86.3182   16.6374 C.2     1  UNL1        0.2494
      2 O          62.0042   86.3454   17.9605 O.2     1  UNL1       -0.2699
      3 N          63.3075   87.5762   16.0800 N.am    1  UNL1       -0.2660
      4 C          64.0137   87.5489   14.7568 C.3     1  UNL1        0.1160
      5 C          64.6108   88.8069   14.1994 C.3     1  UNL1        0.1197
      6 N          64.5018   90.0922   14.9650 N.am    1  UNL1       -0.2555
      7 C          63.7957   90.1195   16.2881 C.2     1  UNL1        0.2497
      8 O          63.6867   91.4048   17.0537 O.2     1  UNL1       -0.2727
      9 C          63.1985   88.8614   16.8456 C.3     1  UNL1        0.1799
     10 C          63.0373   82.4623   14.3405 C.ar    1  UNL1        0.0685
     11 C          64.2707   83.1135   14.8923 C.ar    1  UNL1        0.0104
     12 C          64.1618   84.3988   15.6580 C.ar    1  UNL1        0.0052
     13 C          62.8193   85.0329   15.8718 C.ar    1  UNL1        0.0536
     14 C          61.5859   84.3817   15.3200 C.ar    1  UNL1        0.0052
     15 C          61.6949   83.0964   14.5543 C.ar    1  UNL1        0.0104
     16 N          63.2553   79.8918   12.8093 N.1     1  UNL1       -0.1908
     17 C          63.1463   81.1771   13.5749 C.1     1  UNL1        0.1004
     18 C          65.0990   91.3503   14.4075 C.ar    1  UNL1        0.0541
     19 C          64.7722   91.7794   13.0079 C.ar    1  UNL1        0.0180
     20 C          65.3694   93.0374   12.4504 C.ar    1  UNL1        0.0382
     21 C          66.2934   93.8662   13.2926 C.ar    1  UNL1        0.1386
     22 C          66.6202   93.4371   14.6922 C.ar    1  UNL1        0.0382
     23 C          66.0230   92.1791   15.2496 C.ar    1  UNL1        0.0180
     24 O          66.8906   95.1243   12.7351 O.3     1  UNL1       -0.4754
     25 C          66.0028   96.1745   12.1361 C.3     1  UNL1        0.2068
     26 C          66.0996   96.4932   10.6736 C.3     1  UNL1        0.0646
     27 C          65.7704   95.4435    9.6538 C.3     1  UNL1        0.0759
     28 N          66.7635   94.3636    9.3417 N.3     1  UNL1       -0.2726
     29 C          66.7604   93.0900   10.1342 C.3     1  UNL1        0.0721
     30 C          67.7535   92.0100    9.8221 C.3     1  UNL1        0.0174
     31 C          68.7497   92.2036    8.7175 C.3     1  UNL1        0.0029
     32 C          68.7527   93.4771    7.9250 C.3     1  UNL1        0.0174
     33 C          67.7596   94.5571    8.2371 C.3     1  UNL1        0.0721
@<TRIPOS>BOND
     1    16    17    3
     2    17    10    1
     3    10    11   ar
     4    11    12   ar
     5    12    13   ar
     6    13     1    1
     7     1     2    2
     8     1     3   am
     9     3     4    1
    10     4     5    1
    11     5     6    1
    12     6    18    1
    13    18    19   ar
    14    19    20   ar
    15    20    21   ar
    16    21    24    1
    17    24    25    1
    18    25    26    1
    19    26    27    1
    20    27    28    1
    21    28    29    1
    22    29    30    1
    23    30    31    1
    24    31    32    1
    25    32    33    1
    26    21    22   ar
    27    22    23   ar
    28     6     7   am
    29     7     8    2
    30     7     9    1
    31    13    14   ar
    32    14    15   ar
    33    15    10   ar
    34     9     3    1
    35    23    18   ar
    36    33    28    1
