@<TRIPOS>MOLECULE
*****
 37 41 0 0 0
SMALL
GASTEIGER

@<TRIPOS>ATOM
      1 C          59.6169   87.9990    7.8850 C.3     1  UNL1        0.1748
      2 C          60.1126   88.9594    8.9253 C.3     1  UNL1        0.1770
      3 O          61.0456   88.4852    9.9999 O.3     1  UNL1       -0.3267
      4 C          61.4829   87.0507   10.0342 C.3     1  UNL1        0.2296
      5 O          60.9871   86.0905    8.9939 O.3     1  UNL1       -0.3267
      6 C          60.0541   86.5646    7.9194 C.3     1  UNL1        0.1770
      7 C          62.1759   85.7988   10.4841 C.ar    1  UNL1        0.0409
      8 C          62.0096   85.3148   11.8940 C.ar    1  UNL1        0.0022
      9 C          62.7027   84.0628   12.3439 C.ar    1  UNL1        0.0113
     10 C          63.5621   83.2950   11.3837 C.ar    1  UNL1        0.0585
     11 CL         64.2552   82.0431   11.8336 Cl      1  UNL1       -0.0822
     12 C          63.7284   83.7790    9.9738 C.ar    1  UNL1        0.0226
     13 C          63.0353   85.0309    9.5239 C.ar    1  UNL1        0.0591
     14 CL         63.2016   85.5150    8.1139 Cl      1  UNL1       -0.0824
     15 O          58.6839   88.4732    6.8105 O.3     1  UNL1       -0.3463
     16 C          58.3913   89.9370    6.6634 C.3     1  UNL1        0.1687
     17 C          60.4881   92.3430    3.4910 C.ar    1  UNL1        0.0479
     18 C          59.0171   92.5254    3.7209 C.ar    1  UNL1        0.0143
     19 C          58.3182   91.7234    4.7784 C.ar    1  UNL1       -0.0006
     20 C          59.0903   90.7390    5.6059 C.ar    1  UNL1        0.0073
     21 C          60.5612   90.5567    5.3760 C.ar    1  UNL1       -0.0006
     22 C          61.2602   91.3587    4.3185 C.ar    1  UNL1        0.0143
     23 C          64.6235   95.1116   -1.2507 C.3     1  UNL1        0.0948
     24 C          63.2837   95.5511   -0.7390 C.2     1  UNL1        0.2262
     25 O          62.6429   96.7926   -1.2848 O.2     1  UNL1       -0.2749
     26 N          62.5848   94.7491    0.3185 N.am    1  UNL1       -0.2760
     27 C          63.2257   93.5076    0.8643 C.3     1  UNL1        0.1148
     28 C          62.5267   92.7055    1.9218 C.3     1  UNL1        0.1123
     29 N          61.1870   93.1450    2.4335 N.pl3   1  UNL1       -0.3041
     30 C          60.5462   94.3866    1.8877 C.3     1  UNL1        0.1123
     31 C          61.2451   95.1886    0.8302 C.3     1  UNL1        0.1148
     32 C          62.2193   87.5762   11.2307 C.3     1  UNL1        0.1682
     33 N          62.6481   89.0129   11.2760 N.ar    1  UNL1       -0.3025
     34 C          63.0645   89.8461   10.1003 C.ar    1  UNL1        0.0982
     35 C          63.4097   91.2168   10.6025 C.ar    1  UNL1        0.1193
     36 N          63.2066   91.2306   12.0887 N.ar    1  UNL1       -0.2223
     37 C          62.7359   89.8685   12.5049 C.ar    1  UNL1        0.1788
@<TRIPOS>BOND
     1    23    24    1
     2    24    25    2
     3    24    26   am
     4    26    27    1
     5    27    28    1
     6    28    29    1
     7    29    17    1
     8    17    18   ar
     9    18    19   ar
    10    19    20   ar
    11    20    16    1
    12    16    15    1
    13     1    15    1
    14     1     2    1
    15     2     3    1
    16     3     4    1
    17     4    32    1
    18    32    33    1
    19    33    34   ar
    20    34    35   ar
    21    35    36   ar
    22    36    37   ar
    23     4     7    1
    24     7     8   ar
    25     8     9   ar
    26     9    10   ar
    27    10    11    1
    28    10    12   ar
    29    12    13   ar
    30    13    14    1
    31     4     5    1
    32     5     6    1
    33    20    21   ar
    34    21    22   ar
    35    29    30    1
    36    30    31    1
    37    31    26    1
    38    22    17   ar
    39     6     1    1
    40    37    33   ar
    41    13     7   ar
@<TRIPOS>MOLECULE
*****
 37 41 0 0 0
SMALL
GASTEIGER

@<TRIPOS>ATOM
      1 C          61.5723   87.2695   10.4092 C.3     1  UNL1        0.1748
      2 C          62.6105   87.6229   11.4326 C.3     1  UNL1        0.1770
      3 O          63.2332   86.5467   12.2718 O.3     1  UNL1       -0.3267
      4 C          62.8176   85.1172   12.0876 C.3     1  UNL1        0.2296
      5 O          61.7795   84.7639   11.0642 O.3     1  UNL1       -0.3267
      6 C          61.1568   85.8400   10.2250 C.3     1  UNL1        0.1770
      7 C          62.7551   83.6313   12.2824 C.ar    1  UNL1        0.0409
      8 C          62.0556   83.0605   13.4802 C.ar    1  UNL1        0.0022
      9 C          61.9931   81.5745   13.6749 C.ar    1  UNL1        0.0113
     10 C          62.6303   80.6593   12.6718 C.ar    1  UNL1        0.0585
     11 CL         62.5679   79.1732   12.8665 Cl      1  UNL1       -0.0822
     12 C          63.3299   81.2300   11.4740 C.ar    1  UNL1        0.0226
     13 C          63.3924   82.7159   11.2792 C.ar    1  UNL1        0.0591
     14 CL         64.0919   83.2867   10.0814 Cl      1  UNL1       -0.0824
     15 O          60.9497   88.3456    9.5700 O.3     1  UNL1       -0.3463
     16 C          60.9025   89.7573   10.0747 C.3     1  UNL1        0.1687
     17 C          64.2921   91.3754   12.5530 C.ar    1  UNL1        0.0479
     18 C          63.1819   90.6098   13.2096 C.ar    1  UNL1        0.0143
     19 C          62.0520   90.0705   12.3835 C.ar    1  UNL1       -0.0006
     20 C          62.0324   90.2967   10.9008 C.ar    1  UNL1        0.0073
     21 C          63.1426   91.0622   10.2442 C.ar    1  UNL1       -0.0006
     22 C          64.2725   91.6016   11.0703 C.ar    1  UNL1        0.0143
     23 C          69.5871   92.6166   16.7570 C.3     1  UNL1        0.0948
     24 C          68.8117   93.5328   15.8574 C.2     1  UNL1        0.2262
     25 O          69.1662   94.9885   15.7840 O.2     1  UNL1       -0.2749
     26 N          67.6818   92.9935   15.0313 N.am    1  UNL1       -0.2760
     27 C          67.3273   91.5379   15.1048 C.3     1  UNL1        0.1148
     28 C          66.1974   90.9985   14.2787 C.3     1  UNL1        0.1123
     29 N          65.4220   91.9148   13.3791 N.pl3   1  UNL1       -0.3041
     30 C          65.7765   93.3704   13.3057 C.3     1  UNL1        0.1123
     31 C          66.9064   93.9097   14.1318 C.3     1  UNL1        0.1148
     32 C          63.8341   84.9545   13.1787 C.3     1  UNL1        0.1682
     33 N          63.6605   85.6805   14.4797 N.ar    1  UNL1       -0.3025
     34 C          63.0302   85.1248   15.7222 C.ar    1  UNL1        0.0982
     35 C          63.0669   86.1906   16.7772 C.ar    1  UNL1        0.1193
     36 N          63.7200   87.4050   16.1866 N.ar    1  UNL1       -0.2223
     37 C          64.0869   87.0898   14.7668 C.ar    1  UNL1        0.1788
@<TRIPOS>BOND
     1    23    24    1
     2    24    25    2
     3    24    26   am
     4    26    27    1
     5    27    28    1
     6    28    29    1
     7    29    17    1
     8    17    18   ar
     9    18    19   ar
    10    19    20   ar
    11    20    16    1
    12    16    15    1
    13     1    15    1
    14     1     2    1
    15     2     3    1
    16     3     4    1
    17     4    32    1
    18    32    33    1
    19    33    34   ar
    20    34    35   ar
    21    35    36   ar
    22    36    37   ar
    23     4     7    1
    24     7     8   ar
    25     8     9   ar
    26     9    10   ar
    27    10    11    1
    28    10    12   ar
    29    12    13   ar
    30    13    14    1
    31     4     5    1
    32     5     6    1
    33    20    21   ar
    34    21    22   ar
    35    29    30    1
    36    30    31    1
    37    31    26    1
    38    22    17   ar
    39     6     1    1
    40    37    33   ar
    41    13     7   ar
@<TRIPOS>MOLECULE
*****
 37 41 0 0 0
SMALL
GASTEIGER

@<TRIPOS>ATOM
      1 C          59.8045   91.5802    4.8510 C.3     1  UNL1        0.1748
      2 C          61.2047   91.2686    4.4122 C.3     1  UNL1        0.1770
      3 O          61.6793   91.7004    3.0564 O.3     1  UNL1       -0.3267
      4 C          60.7538   92.4438    2.1394 C.3     1  UNL1        0.2296
      5 O          59.3537   92.7553    2.5782 O.3     1  UNL1       -0.3267
      6 C          58.8791   92.3235    3.9340 C.3     1  UNL1        0.1770
      7 C          60.2544   93.1660    0.9233 C.ar    1  UNL1        0.0409
      8 C          59.9966   92.4089   -0.3457 C.ar    1  UNL1        0.0022
      9 C          59.4973   93.1312   -1.5618 C.ar    1  UNL1        0.0113
     10 C          59.2557   94.6106   -1.5089 C.ar    1  UNL1        0.0585
     11 CL         58.7563   95.3330   -2.7250 Cl      1  UNL1       -0.0822
     12 C          59.5135   95.3678   -0.2400 C.ar    1  UNL1        0.0226
     13 C          60.0128   94.6455    0.9761 C.ar    1  UNL1        0.0591
     14 CL         60.2706   95.4027    2.2451 Cl      1  UNL1       -0.0824
     15 O          59.3298   91.1484    6.2069 O.3     1  UNL1       -0.3463
     16 C          58.8203   89.7529    6.4138 C.3     1  UNL1        0.1687
     17 C          61.0814   86.9013    9.0606 C.ar    1  UNL1        0.0479
     18 C          61.1269   88.3753    9.3347 C.ar    1  UNL1        0.0143
     19 C          60.3732   89.3259    8.4525 C.ar    1  UNL1       -0.0006
     20 C          59.5740   88.8024    7.2961 C.ar    1  UNL1        0.0073
     21 C          59.5285   87.3284    7.0220 C.ar    1  UNL1       -0.0006
     22 C          60.2822   86.3779    7.9042 C.ar    1  UNL1        0.0143
     23 C          63.8787   83.1205   14.0736 C.3     1  UNL1        0.0948
     24 C          64.0963   83.0992   12.5897 C.2     1  UNL1        0.2262
     25 O          65.0675   82.1273   11.9880 O.2     1  UNL1       -0.2749
     26 N          63.3425   84.0497   11.7074 N.am    1  UNL1       -0.2760
     27 C          62.3713   85.0216   12.3091 C.3     1  UNL1        0.1148
     28 C          61.6176   85.9721   11.4268 C.3     1  UNL1        0.1123
     29 N          61.8351   85.9508    9.9429 N.pl3   1  UNL1       -0.3041
     30 C          62.8063   84.9789    9.3412 C.3     1  UNL1        0.1123
     31 C          63.5601   84.0283   10.2234 C.3     1  UNL1        0.1148
     32 C          61.9805   92.3830    1.2782 C.3     1  UNL1        0.1682
     33 N          62.9988   93.4824    1.3449 N.ar    1  UNL1       -0.3025
     34 C          63.5322   94.2619    0.1797 C.ar    1  UNL1        0.0982
     35 C          64.5256   95.2566    0.7031 C.ar    1  UNL1        0.1193
     36 N          64.6062   95.0917    2.1918 N.ar    1  UNL1       -0.2223
     37 C          63.6626   93.9952    2.5885 C.ar    1  UNL1        0.1788
@<TRIPOS>BOND
     1    23    24    1
     2    24    25    2
     3    24    26   am
     4    26    27    1
     5    27    28    1
     6    28    29    1
     7    29    17    1
     8    17    18   ar
     9    18    19   ar
    10    19    20   ar
    11    20    16    1
    12    16    15    1
    13     1    15    1
    14     1     2    1
    15     2     3    1
    16     3     4    1
    17     4    32    1
    18    32    33    1
    19    33    34   ar
    20    34    35   ar
    21    35    36   ar
    22    36    37   ar
    23     4     7    1
    24     7     8   ar
    25     8     9   ar
    26     9    10   ar
    27    10    11    1
    28    10    12   ar
    29    12    13   ar
    30    13    14    1
    31     4     5    1
    32     5     6    1
    33    20    21   ar
    34    21    22   ar
    35    29    30    1
    36    30    31    1
    37    31    26    1
    38    22    17   ar
    39     6     1    1
    40    37    33   ar
    41    13     7   ar
@<TRIPOS>MOLECULE
*****
 37 41 0 0 0
SMALL
GASTEIGER

@<TRIPOS>ATOM
      1 C          59.5057   88.7942    7.3832 C.3     1  UNL1        0.1748
      2 C          59.4439   87.3654    7.8357 C.3     1  UNL1        0.1770
      3 O          60.0431   86.9690    9.1524 O.3     1  UNL1       -0.3267
      4 C          60.7043   88.0016   10.0167 C.3     1  UNL1        0.2296
      5 O          60.7661   89.4303    9.5642 O.3     1  UNL1       -0.3267
      6 C          60.1669   89.8266    8.2475 C.3     1  UNL1        0.1770
      7 C          61.4316   88.6113   11.1782 C.ar    1  UNL1        0.0409
      8 C          62.8754   88.2812   11.4160 C.ar    1  UNL1        0.0022
      9 C          63.6027   88.8910   12.5776 C.ar    1  UNL1        0.0113
     10 C          62.8862   89.8308   13.5013 C.ar    1  UNL1        0.0585
     11 CL         63.6135   90.4406   14.6629 Cl      1  UNL1       -0.0822
     12 C          61.4425   90.1609   13.2635 C.ar    1  UNL1        0.0226
     13 C          60.7151   89.5512   12.1020 C.ar    1  UNL1        0.0591
     14 CL         59.2714   89.8813   11.8642 Cl      1  UNL1       -0.0824
     15 O          58.9065   89.1905    6.0665 O.3     1  UNL1       -0.3463
     16 C          58.6987   90.6404    5.7431 C.3     1  UNL1        0.1687
     17 C          61.3537   92.6775    2.7345 C.ar    1  UNL1        0.0479
     18 C          61.9272   91.6547    3.6699 C.ar    1  UNL1        0.0143
     19 C          61.0422   90.9757    4.6727 C.ar    1  UNL1       -0.0006
     20 C          59.5837   91.3194    4.7402 C.ar    1  UNL1        0.0073
     21 C          59.0102   92.3423    3.8049 C.ar    1  UNL1       -0.0006
     22 C          59.8952   93.0213    2.8020 C.ar    1  UNL1        0.0143
     23 C          64.5585   95.3301   -2.7375 C.3     1  UNL1        0.0948
     24 C          64.8937   95.3937   -1.2769 C.2     1  UNL1        0.2262
     25 O          66.1138   96.1363   -0.8190 O.2     1  UNL1       -0.2749
     26 N          64.0087   94.7146   -0.2740 N.am    1  UNL1       -0.2760
     27 C          62.7885   93.9720   -0.7318 C.3     1  UNL1        0.1148
     28 C          61.9035   93.2930    0.2710 C.3     1  UNL1        0.1123
     29 N          62.2387   93.3566    1.7317 N.pl3   1  UNL1       -0.3041
     30 C          63.4588   94.0992    2.1895 C.3     1  UNL1        0.1123
     31 C          64.3438   94.7782    1.1866 C.3     1  UNL1        0.1148
     32 C          60.8950   86.7845   10.8726 C.3     1  UNL1        0.1682
     33 N          61.8896   85.7352   10.4732 N.ar    1  UNL1       -0.3025
     34 C          62.4237   84.6455   11.3549 C.ar    1  UNL1        0.0982
     35 C          63.3890   83.8280   10.5485 C.ar    1  UNL1        0.1193
     36 N          63.4514   84.4125    9.1685 N.ar    1  UNL1       -0.2223
     37 C          62.5248   85.5911    9.1219 C.ar    1  UNL1        0.1788
@<TRIPOS>BOND
     1    23    24    1
     2    24    25    2
     3    24    26   am
     4    26    27    1
     5    27    28    1
     6    28    29    1
     7    29    17    1
     8    17    18   ar
     9    18    19   ar
    10    19    20   ar
    11    20    16    1
    12    16    15    1
    13     1    15    1
    14     1     2    1
    15     2     3    1
    16     3     4    1
    17     4    32    1
    18    32    33    1
    19    33    34   ar
    20    34    35   ar
    21    35    36   ar
    22    36    37   ar
    23     4     7    1
    24     7     8   ar
    25     8     9   ar
    26     9    10   ar
    27    10    11    1
    28    10    12   ar
    29    12    13   ar
    30    13    14    1
    31     4     5    1
    32     5     6    1
    33    20    21   ar
    34    21    22   ar
    35    29    30    1
    36    30    31    1
    37    31    26    1
    38    22    17   ar
    39     6     1    1
    40    37    33   ar
    41    13     7   ar
@<TRIPOS>MOLECULE
*****
 37 41 0 0 0
SMALL
GASTEIGER

@<TRIPOS>ATOM
      1 C          63.6636   86.9272   15.4664 C.3     1  UNL1        0.1748
      2 C          63.8459   87.1846   13.9999 C.3     1  UNL1        0.1770
      3 O          63.6516   86.0715   13.0133 O.3     1  UNL1       -0.3267
      4 C          63.2749   84.7011   13.4932 C.3     1  UNL1        0.2296
      5 O          63.0926   84.4439   14.9597 O.3     1  UNL1       -0.3267
      6 C          63.2869   85.5569   15.9463 C.3     1  UNL1        0.1770
      7 C          62.9186   83.2445   13.4597 C.ar    1  UNL1        0.0409
      8 C          61.7331   82.7443   14.2307 C.ar    1  UNL1        0.0022
      9 C          61.3769   81.2876   14.1971 C.ar    1  UNL1        0.0113
     10 C          62.2061   80.3311   13.3925 C.ar    1  UNL1        0.0585
     11 CL         61.8499   78.8744   13.3589 Cl      1  UNL1       -0.0822
     12 C          63.3916   80.8312   12.6215 C.ar    1  UNL1        0.0226
     13 C          63.7479   82.2879   12.6550 C.ar    1  UNL1        0.0591
     14 CL         64.9334   82.7880   11.8841 Cl      1  UNL1       -0.0824
     15 O          63.8579   88.0403   16.4530 O.3     1  UNL1       -0.3463
     16 C          63.2991   89.4025   16.1666 C.3     1  UNL1        0.1687
     17 C          65.1346   91.9563   12.9481 C.ar    1  UNL1        0.0479
     18 C          63.8305   91.2583   12.6991 C.ar    1  UNL1        0.0143
     19 C          63.2187   90.4070   13.7720 C.ar    1  UNL1       -0.0006
     20 C          63.9109   90.2537   15.0938 C.ar    1  UNL1        0.0073
     21 C          65.2150   90.9518   15.3428 C.ar    1  UNL1       -0.0006
     22 C          65.8269   91.8030   14.2699 C.ar    1  UNL1        0.0143
     23 C          67.5616   96.8560    8.7824 C.3     1  UNL1        0.0948
     24 C          67.5820   95.3614    8.6568 C.2     1  UNL1        0.2262
     25 O          68.2143   94.7181    7.4583 O.2     1  UNL1       -0.2749
     26 N          66.9701   94.5101    9.7296 N.am    1  UNL1       -0.2760
     27 C          66.3379   95.1534   10.9281 C.3     1  UNL1        0.1148
     28 C          65.7260   94.3021   12.0009 C.3     1  UNL1        0.1123
     29 N          65.7465   92.8076   11.8753 N.pl3   1  UNL1       -0.3041
     30 C          66.3787   92.1643   10.6768 C.3     1  UNL1        0.1123
     31 C          66.9906   93.0156    9.6040 C.3     1  UNL1        0.1148
     32 C          63.3335   84.4525   12.0151 C.3     1  UNL1        0.1682
     33 N          62.4790   85.2608   11.0842 N.ar    1  UNL1       -0.3025
     34 C          62.6298   85.3399    9.5939 C.ar    1  UNL1        0.0982
     35 C          61.5677   86.2599    9.0687 C.ar    1  UNL1        0.1193
     36 N          60.7607   86.7494   10.2345 N.ar    1  UNL1       -0.2223
     37 C          61.3238   86.1319   11.4801 C.ar    1  UNL1        0.1788
@<TRIPOS>BOND
     1    23    24    1
     2    24    25    2
     3    24    26   am
     4    26    27    1
     5    27    28    1
     6    28    29    1
     7    29    17    1
     8    17    18   ar
     9    18    19   ar
    10    19    20   ar
    11    20    16    1
    12    16    15    1
    13     1    15    1
    14     1     2    1
    15     2     3    1
    16     3     4    1
    17     4    32    1
    18    32    33    1
    19    33    34   ar
    20    34    35   ar
    21    35    36   ar
    22    36    37   ar
    23     4     7    1
    24     7     8   ar
    25     8     9   ar
    26     9    10   ar
    27    10    11    1
    28    10    12   ar
    29    12    13   ar
    30    13    14    1
    31     4     5    1
    32     5     6    1
    33    20    21   ar
    34    21    22   ar
    35    29    30    1
    36    30    31    1
    37    31    26    1
    38    22    17   ar
    39     6     1    1
    40    37    33   ar
    41    13     7   ar
@<TRIPOS>MOLECULE
*****
 37 41 0 0 0
SMALL
GASTEIGER

@<TRIPOS>ATOM
      1 C          64.0801   90.5502   14.8556 C.3     1  UNL1        0.1748
      2 C          64.8264   91.5349   15.7062 C.3     1  UNL1        0.1770
      3 O          65.6928   92.5766   15.0626 O.3     1  UNL1       -0.3267
      4 C          65.8129   92.6336   13.5684 C.3     1  UNL1        0.2296
      5 O          65.0666   91.6489   12.7179 O.3     1  UNL1       -0.3267
      6 C          64.2002   90.6072   13.3615 C.3     1  UNL1        0.1770
      7 C          66.2442   93.0874   12.2053 C.ar    1  UNL1        0.0409
      8 C          65.5109   94.2012   11.5187 C.ar    1  UNL1        0.0022
      9 C          65.9423   94.6549   10.1556 C.ar    1  UNL1        0.0113
     10 C          67.1071   93.9947    9.4791 C.ar    1  UNL1        0.0585
     11 CL         67.5385   94.4485    8.1160 Cl      1  UNL1       -0.0822
     12 C          67.8403   92.8809   10.1658 C.ar    1  UNL1        0.0226
     13 C          67.4090   92.4271   11.5289 C.ar    1  UNL1        0.0591
     14 CL         68.1423   91.3133   12.2155 Cl      1  UNL1       -0.0824
     15 O          63.2137   89.5085   15.4992 O.3     1  UNL1       -0.3463
     16 C          63.8287   88.2535   16.0437 C.3     1  UNL1        0.1687
     17 C          63.3933   84.3773   13.7997 C.ar    1  UNL1        0.0479
     18 C          63.5296   85.6680   13.0478 C.ar    1  UNL1        0.0143
     19 C          63.6747   86.9600   13.7958 C.ar    1  UNL1       -0.0006
     20 C          63.6836   86.9614   15.2957 C.ar    1  UNL1        0.0073
     21 C          63.5472   85.6707   16.0477 C.ar    1  UNL1       -0.0006
     22 C          63.4021   84.3786   15.2997 C.ar    1  UNL1        0.0143
     23 C          62.9651   79.1850    9.3157 C.3     1  UNL1        0.0948
     24 C          62.8127   79.2090   10.8077 C.2     1  UNL1        0.2262
     25 O          62.5152   77.9410   11.5517 O.2     1  UNL1       -0.2749
     26 N          62.9579   80.5011   11.5557 N.am    1  UNL1       -0.2760
     27 C          63.2554   81.7691   10.8117 C.3     1  UNL1        0.1148
     28 C          63.4005   83.0612   11.5597 C.3     1  UNL1        0.1123
     29 N          63.2482   83.0852   13.0517 N.pl3   1  UNL1       -0.3041
     30 C          62.9506   81.8172   13.7957 C.3     1  UNL1        0.1123
     31 C          62.8055   80.5251   13.0477 C.3     1  UNL1        0.1148
     32 C          66.7090   93.7759   13.9455 C.3     1  UNL1        0.1682
     33 N          67.8378   93.5572   14.9088 N.ar    1  UNL1       -0.3025
     34 C          68.4303   92.2319   15.2864 C.ar    1  UNL1        0.0982
     35 C          69.5310   92.4809   16.2747 C.ar    1  UNL1        0.1193
     36 N          69.6187   93.9601   16.5078 N.ar    1  UNL1       -0.2223
     37 C          68.5723   94.6253   15.6637 C.ar    1  UNL1        0.1788
@<TRIPOS>BOND
     1    23    24    1
     2    24    25    2
     3    24    26   am
     4    26    27    1
     5    27    28    1
     6    28    29    1
     7    29    17    1
     8    17    18   ar
     9    18    19   ar
    10    19    20   ar
    11    20    16    1
    12    16    15    1
    13     1    15    1
    14     1     2    1
    15     2     3    1
    16     3     4    1
    17     4    32    1
    18    32    33    1
    19    33    34   ar
    20    34    35   ar
    21    35    36   ar
    22    36    37   ar
    23     4     7    1
    24     7     8   ar
    25     8     9   ar
    26     9    10   ar
    27    10    11    1
    28    10    12   ar
    29    12    13   ar
    30    13    14    1
    31     4     5    1
    32     5     6    1
    33    20    21   ar
    34    21    22   ar
    35    29    30    1
    36    30    31    1
    37    31    26    1
    38    22    17   ar
    39     6     1    1
    40    37    33   ar
    41    13     7   ar
@<TRIPOS>MOLECULE
*****
 37 41 0 0 0
SMALL
GASTEIGER

@<TRIPOS>ATOM
      1 C          63.3676   91.5747   11.0846 C.3     1  UNL1        0.1748
      2 C          64.2071   92.3455   10.1093 C.3     1  UNL1        0.1770
      3 O          65.5433   92.8818   10.5299 O.3     1  UNL1       -0.3267
      4 C          66.0401   92.6474   11.9257 C.3     1  UNL1        0.2296
      5 O          65.2005   91.8766   12.9010 O.3     1  UNL1       -0.3267
      6 C          63.8643   91.3403   12.4804 C.3     1  UNL1        0.1770
      7 C          66.9365   92.6852   13.1278 C.ar    1  UNL1        0.0409
      8 C          66.5089   93.4271   14.3593 C.ar    1  UNL1        0.0022
      9 C          67.4054   93.4649   15.5613 C.ar    1  UNL1        0.0113
     10 C          68.7295   92.7608   15.5318 C.ar    1  UNL1        0.0585
     11 CL         69.6261   92.7986   16.7338 Cl      1  UNL1       -0.0822
     12 C          69.1571   92.0188   14.3003 C.ar    1  UNL1        0.0226
     13 C          68.2607   91.9810   13.0982 C.ar    1  UNL1        0.0591
     14 CL         68.6883   91.2391   11.8667 Cl      1  UNL1       -0.0824
     15 O          62.0314   91.0384   10.6641 O.3     1  UNL1       -0.3463
     16 C          61.9533   89.8777    9.7173 C.3     1  UNL1        0.1687
     17 C          62.3267   85.6730   11.2767 C.ar    1  UNL1        0.0479
     18 C          62.7313   86.8316   12.1393 C.ar    1  UNL1        0.0143
     19 C          62.6068   88.2331   11.6195 C.ar    1  UNL1       -0.0006
     20 C          62.0778   88.4761   10.2371 C.ar    1  UNL1        0.0073
     21 C          61.6731   87.3176    9.3746 C.ar    1  UNL1       -0.0006
     22 C          61.7976   85.9161    9.8944 C.ar    1  UNL1        0.0143
     23 C          62.7844   78.9078   12.4047 C.3     1  UNL1        0.0948
     24 C          62.8245   80.0669   13.3560 C.2     1  UNL1        0.2262
     25 O          62.9890   79.8244   14.8270 O.2     1  UNL1       -0.2749
     26 N          62.7000   81.4684   12.8361 N.am    1  UNL1       -0.2760
     27 C          62.5355   81.7109   11.3651 C.3     1  UNL1        0.1148
     28 C          62.4110   83.1124   10.8453 C.3     1  UNL1        0.1123
     29 N          62.4511   84.2715   11.7965 N.pl3   1  UNL1       -0.3041
     30 C          62.6156   84.0290   13.2676 C.3     1  UNL1        0.1123
     31 C          62.7401   82.6275   13.7874 C.3     1  UNL1        0.1148
     32 C          67.1909   93.4313   11.3679 C.3     1  UNL1        0.1682
     33 N          66.9339   94.6666   10.5569 N.ar    1  UNL1       -0.3025
     34 C          67.4335   94.9286    9.1670 C.ar    1  UNL1        0.0982
     35 C          66.9405   96.2808    8.7444 C.ar    1  UNL1        0.1193
     36 N          66.1362   96.8545    9.8731 N.ar    1  UNL1       -0.2223
     37 C          66.1320   95.8569   10.9932 C.ar    1  UNL1        0.1788
@<TRIPOS>BOND
     1    23    24    1
     2    24    25    2
     3    24    26   am
     4    26    27    1
     5    27    28    1
     6    28    29    1
     7    29    17    1
     8    17    18   ar
     9    18    19   ar
    10    19    20   ar
    11    20    16    1
    12    16    15    1
    13     1    15    1
    14     1     2    1
    15     2     3    1
    16     3     4    1
    17     4    32    1
    18    32    33    1
    19    33    34   ar
    20    34    35   ar
    21    35    36   ar
    22    36    37   ar
    23     4     7    1
    24     7     8   ar
    25     8     9   ar
    26     9    10   ar
    27    10    11    1
    28    10    12   ar
    29    12    13   ar
    30    13    14    1
    31     4     5    1
    32     5     6    1
    33    20    21   ar
    34    21    22   ar
    35    29    30    1
    36    30    31    1
    37    31    26    1
    38    22    17   ar
    39     6     1    1
    40    37    33   ar
    41    13     7   ar
@<TRIPOS>MOLECULE
*****
 37 41 0 0 0
SMALL
GASTEIGER

@<TRIPOS>ATOM
      1 C          59.2447   91.3152    5.0919 C.3     1  UNL1        0.1748
      2 C          58.3344   92.0971    4.1919 C.3     1  UNL1        0.1770
      3 O          58.9076   92.9150    3.0728 O.3     1  UNL1       -0.3267
      4 C          60.3911   92.9510    2.8537 C.3     1  UNL1        0.2296
      5 O          61.3013   92.1691    3.7537 O.3     1  UNL1       -0.3267
      6 C          60.7281   91.3512    4.8728 C.3     1  UNL1        0.1770
      7 C          61.7185   93.3008    2.2490 C.ar    1  UNL1        0.0409
      8 C          62.7360   92.2270    2.0009 C.ar    1  UNL1        0.0022
      9 C          64.0634   92.5769    1.3962 C.ar    1  UNL1        0.0113
     10 C          64.3732   94.0006    1.0397 C.ar    1  UNL1        0.0585
     11 CL         65.7006   94.3505    0.4350 Cl      1  UNL1       -0.0822
     12 C          63.3557   95.0743    1.2877 C.ar    1  UNL1        0.0226
     13 C          62.0283   94.7246    1.8924 C.ar    1  UNL1        0.0591
     14 CL         61.0108   95.7983    2.1405 Cl      1  UNL1       -0.0824
     15 O          58.6715   90.4972    6.2111 O.3     1  UNL1       -0.3463
     16 C          58.9451   89.0240    6.2798 C.3     1  UNL1        0.1687
     17 C          61.2138   87.3173    9.7712 C.ar    1  UNL1        0.0479
     18 C          60.6151   86.4010    8.7456 C.ar    1  UNL1        0.0143
     19 C          59.8589   86.9699    7.5818 C.ar    1  UNL1       -0.0006
     20 C          59.7013   88.4551    7.4436 C.ar    1  UNL1        0.0073
     21 C          60.3000   89.3715    8.4692 C.ar    1  UNL1       -0.0006
     22 C          61.0562   88.8026    9.6330 C.ar    1  UNL1        0.0143
     23 C          64.2195   83.5640   14.6832 C.3     1  UNL1        0.0948
     24 C          64.2387   85.0417   14.4265 C.2     1  UNL1        0.2262
     25 O          65.0141   85.9505   15.3335 O.2     1  UNL1       -0.2749
     26 N          63.4825   85.6106   13.2627 N.am    1  UNL1       -0.2760
     27 C          62.7071   84.7018   12.3556 C.3     1  UNL1        0.1148
     28 C          61.9509   85.2707   11.1918 C.3     1  UNL1        0.1123
     29 N          61.9700   86.7484   10.9350 N.pl3   1  UNL1       -0.3041
     30 C          62.7454   87.6572   11.8421 C.3     1  UNL1        0.1123
     31 C          63.5016   87.0883   13.0059 C.3     1  UNL1        0.1148
     32 C          59.9418   93.8544    1.7437 C.3     1  UNL1        0.1682
     33 N          59.2809   93.2766    0.5274 N.ar    1  UNL1       -0.3025
     34 C          58.0490   93.8084   -0.1432 C.ar    1  UNL1        0.0982
     35 C          57.7426   92.9260   -1.3169 C.ar    1  UNL1        0.1193
     36 N          58.7851   91.8489   -1.3717 N.ar    1  UNL1       -0.2223
     37 C          59.7358   92.0655   -0.2319 C.ar    1  UNL1        0.1788
@<TRIPOS>BOND
     1    23    24    1
     2    24    25    2
     3    24    26   am
     4    26    27    1
     5    27    28    1
     6    28    29    1
     7    29    17    1
     8    17    18   ar
     9    18    19   ar
    10    19    20   ar
    11    20    16    1
    12    16    15    1
    13     1    15    1
    14     1     2    1
    15     2     3    1
    16     3     4    1
    17     4    32    1
    18    32    33    1
    19    33    34   ar
    20    34    35   ar
    21    35    36   ar
    22    36    37   ar
    23     4     7    1
    24     7     8   ar
    25     8     9   ar
    26     9    10   ar
    27    10    11    1
    28    10    12   ar
    29    12    13   ar
    30    13    14    1
    31     4     5    1
    32     5     6    1
    33    20    21   ar
    34    21    22   ar
    35    29    30    1
    36    30    31    1
    37    31    26    1
    38    22    17   ar
    39     6     1    1
    40    37    33   ar
    41    13     7   ar
@<TRIPOS>MOLECULE
*****
 37 41 0 0 0
SMALL
GASTEIGER

@<TRIPOS>ATOM
      1 C          63.3644   90.9396   11.7509 C.3     1  UNL1        0.1748
      2 C          64.0336   91.3582   13.0265 C.3     1  UNL1        0.1770
      3 O          65.0605   92.4514   13.0110 O.3     1  UNL1       -0.3267
      4 C          65.4184   93.1260   11.7198 C.3     1  UNL1        0.2296
      5 O          64.7492   92.7074   10.4443 O.3     1  UNL1       -0.3267
      6 C          63.7222   91.6142   10.4599 C.3     1  UNL1        0.1770
      7 C          66.0896   94.0584   10.7555 C.ar    1  UNL1        0.0409
      8 C          65.6089   95.4730   10.6220 C.ar    1  UNL1        0.0022
      9 C          66.2802   96.4054    9.6576 C.ar    1  UNL1        0.0113
     10 C          67.4322   95.9232    8.8267 C.ar    1  UNL1        0.0585
     11 CL         68.1035   96.8556    7.8623 Cl      1  UNL1       -0.0822
     12 C          67.9129   94.5086    8.9602 C.ar    1  UNL1        0.0226
     13 C          67.2416   93.5762    9.9245 C.ar    1  UNL1        0.0591
     14 CL         67.7223   92.1616   10.0580 Cl      1  UNL1       -0.0824
     15 O          62.3374   89.8464   11.7665 O.3     1  UNL1       -0.3463
     16 C          62.2216   88.9096   10.6008 C.3     1  UNL1        0.1687
     17 C          62.4527   84.4635   11.2559 C.ar    1  UNL1        0.0479
     18 C          62.0460   85.0042    9.9172 C.ar    1  UNL1        0.0143
     19 C          61.9689   86.4863    9.6988 C.ar    1  UNL1       -0.0006
     20 C          62.2986   87.4276   10.8192 C.ar    1  UNL1        0.0073
     21 C          62.7054   86.8868   12.1578 C.ar    1  UNL1       -0.0006
     22 C          62.7824   85.4048   12.3762 C.ar    1  UNL1        0.0143
     23 C          63.0005   77.6176   10.9674 C.3     1  UNL1        0.0948
     24 C          62.7609   78.5354   12.1293 C.2     1  UNL1        0.2262
     25 O          62.5983   77.9712   13.5095 O.2     1  UNL1       -0.2749
     26 N          62.6838   80.0174   11.9109 N.am    1  UNL1       -0.2760
     27 C          62.8464   80.5816   10.5306 C.3     1  UNL1        0.1148
     28 C          62.7694   82.0637   10.3123 C.3     1  UNL1        0.1123
     29 N          62.5298   82.9815   11.4742 N.pl3   1  UNL1       -0.3041
     30 C          62.3672   82.4173   12.8545 C.3     1  UNL1        0.1123
     31 C          62.4442   80.9353   13.0728 C.3     1  UNL1        0.1148
     32 C          66.3206   93.8685   12.6604 C.3     1  UNL1        0.1682
     33 N          66.9523   93.1513   13.8166 N.ar    1  UNL1       -0.3025
     34 C          67.9895   92.0717   13.7240 C.ar    1  UNL1        0.0982
     35 C          68.3360   91.6409   15.1185 C.ar    1  UNL1        0.1193
     36 N          67.5129   92.4544   16.0728 N.ar    1  UNL1       -0.2223
     37 C          66.6578   93.3879   15.2683 C.ar    1  UNL1        0.1788
@<TRIPOS>BOND
     1    23    24    1
     2    24    25    2
     3    24    26   am
     4    26    27    1
     5    27    28    1
     6    28    29    1
     7    29    17    1
     8    17    18   ar
     9    18    19   ar
    10    19    20   ar
    11    20    16    1
    12    16    15    1
    13     1    15    1
    14     1     2    1
    15     2     3    1
    16     3     4    1
    17     4    32    1
    18    32    33    1
    19    33    34   ar
    20    34    35   ar
    21    35    36   ar
    22    36    37   ar
    23     4     7    1
    24     7     8   ar
    25     8     9   ar
    26     9    10   ar
    27    10    11    1
    28    10    12   ar
    29    12    13   ar
    30    13    14    1
    31     4     5    1
    32     5     6    1
    33    20    21   ar
    34    21    22   ar
    35    29    30    1
    36    30    31    1
    37    31    26    1
    38    22    17   ar
    39     6     1    1
    40    37    33   ar
    41    13     7   ar
