@<TRIPOS>MOLECULE
*****
 43 47 0 0 0
SMALL
GASTEIGER

@<TRIPOS>ATOM
      1 C          62.9753   84.4576   13.5752 C.ar    1  UNL1        0.1351
      2 C          62.4069   85.4445   12.5991 C.ar    1  UNL1        0.0535
      3 C          62.0198   84.9979   11.2205 C.ar    1  UNL1        0.0857
      4 N          62.2009   83.5643   10.8180 N.ar    1  UNL1       -0.2232
      5 C          62.7693   82.5773   11.7941 C.ar    1  UNL1        0.2362
      6 N          63.1565   83.0239   13.1728 N.ar    1  UNL1       -0.2084
      7 C          61.4514   85.9848   10.2443 C.ar    1  UNL1        0.0178
      8 C          61.2639   85.5959    8.8078 C.ar    1  UNL1        0.0012
      9 C          60.6956   86.5829    7.8316 C.ar    1  UNL1       -0.0042
     10 C          60.3147   87.9587    8.2920 C.ar    1  UNL1       -0.0225
     11 C          60.5022   88.3477    9.7285 C.ar    1  UNL1       -0.0042
     12 C          61.0706   87.3607   10.7047 C.ar    1  UNL1        0.0012
     13 C          59.7463   88.9457    7.3158 C.3     1  UNL1        0.0224
     14 C          58.2642   89.0144    7.0957 C.3     1  UNL1        0.0047
     15 C          57.6959   90.0014    6.1196 C.3     1  UNL1        0.0059
     16 C          58.6098   90.9196    5.3634 C.3     1  UNL1        0.0366
     17 C          60.0919   90.8508    5.5834 C.3     1  UNL1        0.0059
     18 C          60.6602   89.8639    6.5596 C.3     1  UNL1        0.0047
     19 C          58.0414   91.9065    4.3872 C.2     1  UNL1        0.0500
     20 O          58.9235   92.5180    3.3394 O.co2   1  UNL1       -0.5492
     21 O          56.5909   92.2820    4.4588 O.co2   1  UNL1       -0.5492
     22 C          63.6781   86.2247   15.5915 C.3     1  UNL1        0.1525
     23 C          63.9100   85.5357   16.9036 C.3     1  UNL1        0.0506
     24 C          63.5943   84.2153   16.2660 C.3     1  UNL1        0.0948
     25 N          63.3624   84.9042   14.9539 N.pl3   1  UNL1       -0.2868
     26 N          63.3022   88.7595   16.0202 N.am    1  UNL1       -0.3027
     27 C          63.7374   87.6457   15.1145 C.2     1  UNL1        0.2406
     28 O          64.2318   87.9527   13.7321 O.2     1  UNL1       -0.2733
     29 H          62.9778   88.5580   16.9275 H       1  UNL1        0.1495
     30 C          63.3615   90.1804   15.5432 C.3     1  UNL1        0.0941
     31 C          64.6694   90.9147   15.5345 C.3     1  UNL1        0.0476
     32 C          66.3469   92.4774   11.6623 C.ar    1  UNL1        0.0684
     33 C          67.2163   92.4082   12.8826 C.ar    1  UNL1        0.0100
     34 C          66.6572   91.8873   14.1733 C.ar    1  UNL1       -0.0035
     35 C          65.2286   91.4356   14.2438 C.ar    1  UNL1       -0.0204
     36 C          64.3591   91.5048   13.0235 C.ar    1  UNL1       -0.0035
     37 C          64.9183   92.0257   11.7327 C.ar    1  UNL1        0.0100
     38 N          67.4652   93.5191    9.0808 N.1     1  UNL1       -0.1908
     39 C          66.9060   92.9983   10.3715 C.1     1  UNL1        0.1004
     40 C          62.9505   81.1438   11.3916 C.3     1  UNL1        0.4523
     41 F          63.1316   79.7101   10.9891 F       1  UNL1       -0.1632
     42 F          63.5486   81.5851   10.0888 F       1  UNL1       -0.1632
     43 F          62.3523   80.7024   12.6945 F       1  UNL1       -0.1632
@<TRIPOS>UNITY_ATOM_ATTR
20 1
charge -1
@<TRIPOS>BOND
     1    38    39    3
     2    39    32    1
     3    32    33   ar
     4    33    34   ar
     5    34    35   ar
     6    35    31    1
     7    31    30    1
     8    30    26    1
     9    26    27   am
    10    27    28    2
    11    22    27    1
    12    22    23    1
    13    23    24    1
    14    24    25    1
    15    25     1    1
    16     1     2   ar
    17     2     3   ar
    18     3     7    1
    19     7     8   ar
    20     8     9   ar
    21     9    10   ar
    22    13    10    1
    23    13    14    1
    24    14    15    1
    25    15    16    1
    26    16    19    1
    27    19    20   ar
    28    19    21   ar
    29    16    17    1
    30    17    18    1
    31    10    11   ar
    32    11    12   ar
    33     3     4   ar
    34     4     5   ar
    35     5    40    1
    36    40    41    1
    37    40    42    1
    38    40    43    1
    39     5     6   ar
    40    35    36   ar
    41    36    37   ar
    42    37    32   ar
    43    25    22    1
    44     6     1   ar
    45    12     7   ar
    46    18    13    1
    47    26    29    1
@<TRIPOS>MOLECULE
*****
 43 47 0 0 0
SMALL
GASTEIGER

@<TRIPOS>ATOM
      1 C          59.3257   89.4330    6.8877 C.ar    1  UNL1        0.1351
      2 C          60.2482   90.0044    7.9233 C.ar    1  UNL1        0.0535
      3 C          61.1247   89.0940    8.7312 C.ar    1  UNL1        0.0857
      4 N          61.0788   87.6121    8.5036 N.ar    1  UNL1       -0.2232
      5 C          60.1563   87.0406    7.4680 C.ar    1  UNL1        0.2362
      6 N          59.2798   87.9510    6.6600 N.ar    1  UNL1       -0.2084
      7 C          62.0472   89.6655    9.7668 C.ar    1  UNL1        0.0178
      8 C          62.3013   88.9154   11.0407 C.ar    1  UNL1        0.0012
      9 C          63.2237   89.4868   12.0763 C.ar    1  UNL1       -0.0042
     10 C          63.8921   90.8084   11.8380 C.ar    1  UNL1       -0.0225
     11 C          63.6380   91.5585   10.5642 C.ar    1  UNL1       -0.0042
     12 C          62.7156   90.9870    9.5285 C.ar    1  UNL1        0.0012
     13 C          64.8146   91.3798   12.8737 C.3     1  UNL1        0.0224
     14 C          65.5849   92.6335   12.5822 C.3     1  UNL1        0.0047
     15 C          66.5073   93.2048   13.6178 C.3     1  UNL1        0.0059
     16 C          66.6595   92.5226   14.9450 C.3     1  UNL1        0.0366
     17 C          65.8892   91.2690   15.2365 C.3     1  UNL1        0.0059
     18 C          64.9668   90.6976   14.2009 C.3     1  UNL1        0.0047
     19 C          67.5820   93.0940   15.9807 C.2     1  UNL1        0.0500
     20 O          67.9944   94.5342   15.9048 O.co2   1  UNL1       -0.5492
     21 O          68.0919   92.2253   17.0920 O.co2   1  UNL1       -0.5492
     22 C          58.6856   91.3762    5.0178 C.3     1  UNL1        0.1525
     23 C          57.2096   91.6309    4.9371 C.3     1  UNL1        0.0506
     24 C          56.9732   90.5982    5.9989 C.3     1  UNL1        0.0948
     25 N          58.4492   90.3434    6.0797 N.pl3   1  UNL1       -0.2868
     26 N          59.7368   92.9201    3.2119 N.am    1  UNL1       -0.3027
     27 C          59.8964   91.9263    4.3241 C.2     1  UNL1        0.2406
     28 O          61.2668   91.4827    4.7426 O.2     1  UNL1       -0.2733
     29 H          58.8373   93.2113    2.9372 H       1  UNL1        0.1495
     30 C          60.9476   93.4703    2.5182 C.3     1  UNL1        0.0941
     31 C          61.7743   92.5828    1.6356 C.3     1  UNL1        0.0476
     32 C          63.6737   94.2513   -2.0870 C.ar    1  UNL1        0.0684
     33 C          64.3775   94.3707   -0.7678 C.ar    1  UNL1        0.0100
     34 C          63.7444   93.8146    0.4731 C.ar    1  UNL1       -0.0035
     35 C          62.4075   93.1390    0.3947 C.ar    1  UNL1       -0.0204
     36 C          61.7037   93.0196   -0.9245 C.ar    1  UNL1       -0.0035
     37 C          62.3368   93.5758   -2.1654 C.ar    1  UNL1        0.0100
     38 N          64.9400   95.3637   -4.5688 N.1     1  UNL1       -0.1908
     39 C          64.3069   94.8075   -3.3279 C.1     1  UNL1        0.1004
     40 C          60.1104   85.5587    7.2404 C.3     1  UNL1        0.4523
     41 F          60.0645   84.0767    7.0127 F       1  UNL1       -0.1632
     42 F          58.6202   85.5788    7.4101 F       1  UNL1       -0.1632
     43 F          61.6007   85.5386    7.0706 F       1  UNL1       -0.1632
@<TRIPOS>UNITY_ATOM_ATTR
20 1
charge -1
@<TRIPOS>BOND
     1    38    39    3
     2    39    32    1
     3    32    33   ar
     4    33    34   ar
     5    34    35   ar
     6    35    31    1
     7    31    30    1
     8    30    26    1
     9    26    27   am
    10    27    28    2
    11    22    27    1
    12    22    23    1
    13    23    24    1
    14    24    25    1
    15    25     1    1
    16     1     2   ar
    17     2     3   ar
    18     3     7    1
    19     7     8   ar
    20     8     9   ar
    21     9    10   ar
    22    13    10    1
    23    13    14    1
    24    14    15    1
    25    15    16    1
    26    16    19    1
    27    19    20   ar
    28    19    21   ar
    29    16    17    1
    30    17    18    1
    31    10    11   ar
    32    11    12   ar
    33     3     4   ar
    34     4     5   ar
    35     5    40    1
    36    40    41    1
    37    40    42    1
    38    40    43    1
    39     5     6   ar
    40    35    36   ar
    41    36    37   ar
    42    37    32   ar
    43    25    22    1
    44     6     1   ar
    45    12     7   ar
    46    18    13    1
    47    26    29    1
@<TRIPOS>MOLECULE
*****
 43 47 0 0 0
SMALL
GASTEIGER

@<TRIPOS>ATOM
      1 C          63.0451   84.4499   13.5524 C.ar    1  UNL1        0.1351
      2 C          62.4760   85.4380   12.5779 C.ar    1  UNL1        0.0535
      3 C          62.0729   84.9898   11.2043 C.ar    1  UNL1        0.0857
      4 N          62.2389   83.5535   10.8053 N.ar    1  UNL1       -0.2232
      5 C          62.8080   82.5653   11.7798 C.ar    1  UNL1        0.2362
      6 N          63.2111   83.0135   13.1533 N.ar    1  UNL1       -0.2084
      7 C          61.5038   85.9780   10.2298 C.ar    1  UNL1        0.0178
      8 C          61.4056   87.4276   10.6027 C.ar    1  UNL1        0.0012
      9 C          60.8365   88.4158    9.6282 C.ar    1  UNL1       -0.0042
     10 C          60.3656   87.9543    8.2808 C.ar    1  UNL1       -0.0225
     11 C          60.4638   86.5048    7.9080 C.ar    1  UNL1       -0.0042
     12 C          61.0330   85.5165    8.8825 C.ar    1  UNL1        0.0012
     13 C          59.7965   88.9426    7.3063 C.3     1  UNL1        0.0224
     14 C          58.3109   89.0516    7.1300 C.3     1  UNL1        0.0047
     15 C          57.7419   90.0398    6.1555 C.3     1  UNL1        0.0059
     16 C          58.6584   90.9189    5.3574 C.3     1  UNL1        0.0366
     17 C          60.1440   90.8099    5.5338 C.3     1  UNL1        0.0059
     18 C          60.7130   89.8218    6.5082 C.3     1  UNL1        0.0047
     19 C          58.0893   91.9072    4.3829 C.2     1  UNL1        0.0500
     20 O          56.6090   92.1445    4.3336 O.co2   1  UNL1       -0.5492
     21 O          59.0005   92.6580    3.4577 O.co2   1  UNL1       -0.5492
     22 C          63.6754   86.2268   15.5840 C.3     1  UNL1        0.1525
     23 C          64.0181   85.5320   16.8684 C.3     1  UNL1        0.0506
     24 C          63.7909   84.2034   16.2104 C.3     1  UNL1        0.0948
     25 N          63.4481   84.8981   14.9259 N.pl3   1  UNL1       -0.2868
     26 N          63.9289   88.0250   13.7259 N.am    1  UNL1       -0.3027
     27 C          63.5936   87.6576   15.1411 C.2     1  UNL1        0.2406
     28 O          63.1767   88.7210   16.1133 O.2     1  UNL1       -0.2733
     29 H          64.2026   87.3270   13.0878 H       1  UNL1        0.1495
     30 C          63.8472   89.4557   13.2830 C.3     1  UNL1        0.0941
     31 C          63.7795   90.5538   14.3026 C.3     1  UNL1        0.0476
     32 C          67.4977   92.8397   15.3978 C.ar    1  UNL1        0.0684
     33 C          66.3497   92.7693   16.3606 C.ar    1  UNL1        0.0100
     34 C          65.1103   92.0073   15.9956 C.ar    1  UNL1       -0.0035
     35 C          65.0189   91.3158   14.6677 C.ar    1  UNL1       -0.0204
     36 C          66.1669   91.3862   13.7048 C.ar    1  UNL1       -0.0035
     37 C          67.4063   92.1482   14.0699 C.ar    1  UNL1        0.0100
     38 N          69.9765   94.3637   16.1279 N.1     1  UNL1       -0.1908
     39 C          68.7371   93.6017   15.7628 C.1     1  UNL1        0.1004
     40 C          62.9741   81.1289   11.3807 C.3     1  UNL1        0.4523
     41 F          63.1401   79.6925   10.9817 F       1  UNL1       -0.1632
     42 F          63.3852   81.5590   10.0038 F       1  UNL1       -0.1632
     43 F          62.5629   80.6989   12.7577 F       1  UNL1       -0.1632
@<TRIPOS>UNITY_ATOM_ATTR
20 1
charge -1
@<TRIPOS>BOND
     1    38    39    3
     2    39    32    1
     3    32    33   ar
     4    33    34   ar
     5    34    35   ar
     6    35    31    1
     7    31    30    1
     8    30    26    1
     9    26    27   am
    10    27    28    2
    11    22    27    1
    12    22    23    1
    13    23    24    1
    14    24    25    1
    15    25     1    1
    16     1     2   ar
    17     2     3   ar
    18     3     7    1
    19     7     8   ar
    20     8     9   ar
    21     9    10   ar
    22    13    10    1
    23    13    14    1
    24    14    15    1
    25    15    16    1
    26    16    19    1
    27    19    20   ar
    28    19    21   ar
    29    16    17    1
    30    17    18    1
    31    10    11   ar
    32    11    12   ar
    33     3     4   ar
    34     4     5   ar
    35     5    40    1
    36    40    41    1
    37    40    42    1
    38    40    43    1
    39     5     6   ar
    40    35    36   ar
    41    36    37   ar
    42    37    32   ar
    43    25    22    1
    44     6     1   ar
    45    12     7   ar
    46    18    13    1
    47    26    29    1
@<TRIPOS>MOLECULE
*****
 43 47 0 0 0
SMALL
GASTEIGER

@<TRIPOS>ATOM
      1 C          59.3483   89.4760    6.8621 C.ar    1  UNL1        0.1351
      2 C          60.2751   90.0432    7.8960 C.ar    1  UNL1        0.0535
      3 C          61.1287   89.1269    8.7217 C.ar    1  UNL1        0.0857
      4 N          61.0554   87.6432    8.5134 N.ar    1  UNL1       -0.2232
      5 C          60.1285   87.0759    7.4794 C.ar    1  UNL1        0.2362
      6 N          59.2749   87.9923    6.6538 N.ar    1  UNL1       -0.2084
      7 C          62.0556   89.6941    9.7556 C.ar    1  UNL1        0.0178
      8 C          62.6935   91.0340    9.5367 C.ar    1  UNL1        0.0012
      9 C          63.6204   91.6013   10.5706 C.ar    1  UNL1       -0.0042
     10 C          63.9094   90.8287   11.8235 C.ar    1  UNL1       -0.0225
     11 C          63.2715   89.4889   12.0424 C.ar    1  UNL1       -0.0042
     12 C          62.3446   88.9216   11.0084 C.ar    1  UNL1        0.0012
     13 C          64.8363   91.3961   12.8574 C.3     1  UNL1        0.0224
     14 C          64.9399   90.7500   14.2072 C.3     1  UNL1        0.0047
     15 C          65.8668   91.3173   15.2410 C.3     1  UNL1        0.0059
     16 C          66.6901   92.5308   14.9252 C.3     1  UNL1        0.0366
     17 C          66.5865   93.1769   13.5754 C.3     1  UNL1        0.0059
     18 C          65.6596   92.6095   12.5416 C.3     1  UNL1        0.0047
     19 C          67.6171   93.0981   15.9591 C.2     1  UNL1        0.0500
     20 O          68.1626   92.2155   17.0424 O.co2   1  UNL1       -0.5492
     21 O          67.9985   94.5479   15.9098 O.co2   1  UNL1       -0.5492
     22 C          58.7570   91.3998    4.9564 C.3     1  UNL1        0.1525
     23 C          57.2876   91.6882    4.8687 C.3     1  UNL1        0.0506
     24 C          57.0254   90.6809    5.9486 C.3     1  UNL1        0.0948
     25 N          58.4947   90.3923    6.0364 N.pl3   1  UNL1       -0.2868
     26 N          59.8453   92.8589    3.1025 N.am    1  UNL1       -0.3027
     27 C          59.9815   91.9082    4.2548 C.2     1  UNL1        0.2406
     28 O          61.3421   91.4659    4.7054 O.2     1  UNL1       -0.2733
     29 H          58.9523   93.1492    2.8067 H       1  UNL1        0.1495
     30 C          61.0697   93.3672    2.4009 C.3     1  UNL1        0.0941
     31 C          61.5555   92.6895    1.1541 C.3     1  UNL1        0.0476
     32 C          59.4298   93.3736   -2.7528 C.ar    1  UNL1        0.0684
     33 C          60.8576   93.8037   -2.5904 C.ar    1  UNL1        0.0100
     34 C          61.5662   93.5756   -1.2882 C.ar    1  UNL1       -0.0035
     35 C          60.8469   92.9175   -0.1482 C.ar    1  UNL1       -0.0204
     36 C          59.4192   92.4874   -0.3106 C.ar    1  UNL1       -0.0035
     37 C          58.7106   92.7154   -1.6128 C.ar    1  UNL1        0.0100
     38 N          58.0127   93.8296   -5.3574 N.1     1  UNL1       -0.1908
     39 C          58.7213   93.6016   -4.0551 C.1     1  UNL1        0.1004
     40 C          60.0551   85.5923    7.2712 C.3     1  UNL1        0.4523
     41 F          59.9817   84.1086    7.0629 F       1  UNL1       -0.1632
     42 F          61.5422   85.5455    7.0805 F       1  UNL1       -0.1632
     43 F          58.5680   85.6391    7.4618 F       1  UNL1       -0.1632
@<TRIPOS>UNITY_ATOM_ATTR
20 1
charge -1
@<TRIPOS>BOND
     1    38    39    3
     2    39    32    1
     3    32    33   ar
     4    33    34   ar
     5    34    35   ar
     6    35    31    1
     7    31    30    1
     8    30    26    1
     9    26    27   am
    10    27    28    2
    11    22    27    1
    12    22    23    1
    13    23    24    1
    14    24    25    1
    15    25     1    1
    16     1     2   ar
    17     2     3   ar
    18     3     7    1
    19     7     8   ar
    20     8     9   ar
    21     9    10   ar
    22    13    10    1
    23    13    14    1
    24    14    15    1
    25    15    16    1
    26    16    19    1
    27    19    20   ar
    28    19    21   ar
    29    16    17    1
    30    17    18    1
    31    10    11   ar
    32    11    12   ar
    33     3     4   ar
    34     4     5   ar
    35     5    40    1
    36    40    41    1
    37    40    42    1
    38    40    43    1
    39     5     6   ar
    40    35    36   ar
    41    36    37   ar
    42    37    32   ar
    43    25    22    1
    44     6     1   ar
    45    12     7   ar
    46    18    13    1
    47    26    29    1
@<TRIPOS>MOLECULE
*****
 43 47 0 0 0
SMALL
GASTEIGER

@<TRIPOS>ATOM
      1 C          60.2455   91.3480    4.4142 C.ar    1  UNL1        0.1351
      2 C          60.7505   90.3811    5.4438 C.ar    1  UNL1        0.0535
      3 C          59.7906   89.7257    6.3918 C.ar    1  UNL1        0.0857
      4 N          58.3255   90.0371    6.3103 N.ar    1  UNL1       -0.2232
      5 C          57.8204   91.0041    5.2807 C.ar    1  UNL1        0.2362
      6 N          58.7804   91.6595    4.3327 N.ar    1  UNL1       -0.2084
      7 C          60.2956   88.7588    7.4214 C.ar    1  UNL1        0.0178
      8 C          60.1345   87.2829    7.2070 C.ar    1  UNL1        0.0012
      9 C          60.6396   86.3160    8.2366 C.ar    1  UNL1       -0.0042
     10 C          61.3056   86.8249    9.4805 C.ar    1  UNL1       -0.0225
     11 C          61.4667   88.3007    9.6949 C.ar    1  UNL1       -0.0042
     12 C          60.9616   89.2677    8.6653 C.ar    1  UNL1        0.0012
     13 C          61.8107   85.8580   10.5101 C.3     1  UNL1        0.0224
     14 C          62.4128   84.5527   10.0816 C.3     1  UNL1        0.0047
     15 C          62.9178   83.5858   11.1111 C.3     1  UNL1        0.0059
     16 C          62.8206   83.9242   12.5692 C.3     1  UNL1        0.0366
     17 C          62.2185   85.2294   12.9978 C.3     1  UNL1        0.0059
     18 C          61.7135   86.1963   11.9682 C.3     1  UNL1        0.0047
     19 C          63.3257   82.9572   13.5988 C.2     1  UNL1        0.0500
     20 O          64.1033   81.7470   13.1735 O.co2   1  UNL1       -0.5492
     21 O          63.0531   83.2004   15.0536 O.co2   1  UNL1       -0.5492
     22 C          61.0716   92.9173    2.2841 C.3     1  UNL1        0.1525
     23 C          62.5631   92.9304    2.1254 C.3     1  UNL1        0.0506
     24 C          62.6970   92.0166    3.3073 C.3     1  UNL1        0.0948
     25 N          61.2055   92.0035    3.4662 N.pl3   1  UNL1       -0.2868
     26 N          59.0706   92.7344    0.6372 N.am    1  UNL1       -0.3027
     27 C          59.9223   93.5542    1.5606 C.2     1  UNL1        0.2406
     28 O          59.6247   95.0106    1.7606 O.2     1  UNL1       -0.2733
     29 H          59.2659   91.7785    0.5059 H       1  UNL1        0.1495
     30 C          57.9213   93.3713   -0.0863 C.3     1  UNL1        0.0941
     31 C          58.1039   93.8764   -1.4868 C.3     1  UNL1        0.0476
     32 C          56.1524   91.7284   -4.9259 C.ar    1  UNL1        0.0684
     33 C          55.9509   91.2368   -3.5232 C.ar    1  UNL1        0.0100
     34 C          56.6015   91.9528   -2.3769 C.ar    1  UNL1       -0.0035
     35 C          57.4534   93.1604   -2.6332 C.ar    1  UNL1       -0.0204
     36 C          57.6549   93.6520   -4.0359 C.ar    1  UNL1       -0.0035
     37 C          57.0043   92.9360   -5.1823 C.ar    1  UNL1        0.0100
     38 N          54.8514   90.2964   -7.2187 N.1     1  UNL1       -0.1908
     39 C          55.5019   91.0124   -6.0723 C.1     1  UNL1        0.1004
     40 C          56.3554   91.3155    5.1992 C.3     1  UNL1        0.4523
     41 F          54.8903   91.6270    5.1177 F       1  UNL1       -0.1632
     42 F          56.0336   89.9076    5.6043 F       1  UNL1       -0.1632
     43 F          56.6773   92.7235    4.7941 F       1  UNL1       -0.1632
@<TRIPOS>UNITY_ATOM_ATTR
20 1
charge -1
@<TRIPOS>BOND
     1    38    39    3
     2    39    32    1
     3    32    33   ar
     4    33    34   ar
     5    34    35   ar
     6    35    31    1
     7    31    30    1
     8    30    26    1
     9    26    27   am
    10    27    28    2
    11    22    27    1
    12    22    23    1
    13    23    24    1
    14    24    25    1
    15    25     1    1
    16     1     2   ar
    17     2     3   ar
    18     3     7    1
    19     7     8   ar
    20     8     9   ar
    21     9    10   ar
    22    13    10    1
    23    13    14    1
    24    14    15    1
    25    15    16    1
    26    16    19    1
    27    19    20   ar
    28    19    21   ar
    29    16    17    1
    30    17    18    1
    31    10    11   ar
    32    11    12   ar
    33     3     4   ar
    34     4     5   ar
    35     5    40    1
    36    40    41    1
    37    40    42    1
    38    40    43    1
    39     5     6   ar
    40    35    36   ar
    41    36    37   ar
    42    37    32   ar
    43    25    22    1
    44     6     1   ar
    45    12     7   ar
    46    18    13    1
    47    26    29    1
@<TRIPOS>MOLECULE
*****
 43 47 0 0 0
SMALL
GASTEIGER

@<TRIPOS>ATOM
      1 C          60.9467   87.6871   10.2144 C.ar    1  UNL1        0.1351
      2 C          62.1465   88.3664   10.8054 C.ar    1  UNL1        0.0535
      3 C          61.9914   89.2519   12.0062 C.ar    1  UNL1        0.0857
      4 N          60.6366   89.4581   12.6160 N.ar    1  UNL1       -0.2232
      5 C          59.4368   88.7789   12.0250 C.ar    1  UNL1        0.2362
      6 N          59.5918   87.8934   10.8243 N.ar    1  UNL1       -0.2084
      7 C          63.1911   89.9311   12.5971 C.ar    1  UNL1        0.0178
      8 C          63.7833   89.4258   13.8794 C.ar    1  UNL1        0.0012
      9 C          64.9830   90.1050   14.4703 C.ar    1  UNL1       -0.0042
     10 C          65.5906   91.2895   13.7791 C.ar    1  UNL1       -0.0225
     11 C          64.9985   91.7948   12.4969 C.ar    1  UNL1       -0.0042
     12 C          63.7987   91.1156   11.9059 C.ar    1  UNL1        0.0012
     13 C          66.7904   91.9688   14.3701 C.3     1  UNL1        0.0224
     14 C          68.1315   91.8276   13.7134 C.3     1  UNL1        0.0047
     15 C          69.3312   92.5069   14.3044 C.3     1  UNL1        0.0059
     16 C          69.1898   93.3272   15.5522 C.3     1  UNL1        0.0366
     17 C          67.8486   93.4683   16.2090 C.3     1  UNL1        0.0059
     18 C          66.6489   92.7891   15.6180 C.3     1  UNL1        0.0047
     19 C          70.3895   94.0064   16.1432 C.2     1  UNL1        0.0500
     20 O          71.0005   95.1875   15.4491 O.co2   1  UNL1       -0.5492
     21 O          70.9783   93.5046   17.4283 O.co2   1  UNL1       -0.5492
     22 C          61.8355   85.5256    8.7244 C.3     1  UNL1        0.1525
     23 C          61.3211   85.5493    7.3156 C.3     1  UNL1        0.0506
     24 C          60.5875   86.8252    7.6048 C.3     1  UNL1        0.0948
     25 N          61.1018   86.8016    9.0137 N.pl3   1  UNL1       -0.2868
     26 N          62.3332   84.2158   10.9123 N.am    1  UNL1       -0.3027
     27 C          62.7179   84.6066    9.5161 C.2     1  UNL1        0.2406
     28 O          63.9851   84.0785    8.9116 O.2     1  UNL1       -0.2733
     29 H          61.5015   84.5624   11.3090 H       1  UNL1        0.1495
     30 C          63.2157   83.2968   11.7040 C.3     1  UNL1        0.0941
     31 C          64.2872   83.8630   12.5878 C.3     1  UNL1        0.0476
     32 C          63.1897   85.7823   16.5073 C.ar    1  UNL1        0.0684
     33 C          64.3166   86.3394   15.6889 C.ar    1  UNL1        0.0100
     34 C          64.6824   85.6996   14.3824 C.ar    1  UNL1       -0.0035
     35 C          63.9213   84.5027   13.8943 C.ar    1  UNL1       -0.0204
     36 C          62.7945   83.9456   14.7127 C.ar    1  UNL1       -0.0035
     37 C          62.4287   84.5854   16.0192 C.ar    1  UNL1        0.0100
     38 N          62.4581   87.0618   19.1202 N.1     1  UNL1       -0.1908
     39 C          62.8239   86.4220   17.8137 C.1     1  UNL1        0.1004
     40 C          58.0820   88.9852   12.6348 C.3     1  UNL1        0.4523
     41 F          56.7271   89.1915   13.2446 F       1  UNL1       -0.1632
     42 F          58.3175   87.8217   13.5517 F       1  UNL1       -0.1632
     43 F          57.8464   90.1487   11.7179 F       1  UNL1       -0.1632
@<TRIPOS>UNITY_ATOM_ATTR
20 1
charge -1
@<TRIPOS>BOND
     1    38    39    3
     2    39    32    1
     3    32    33   ar
     4    33    34   ar
     5    34    35   ar
     6    35    31    1
     7    31    30    1
     8    30    26    1
     9    26    27   am
    10    27    28    2
    11    22    27    1
    12    22    23    1
    13    23    24    1
    14    24    25    1
    15    25     1    1
    16     1     2   ar
    17     2     3   ar
    18     3     7    1
    19     7     8   ar
    20     8     9   ar
    21     9    10   ar
    22    13    10    1
    23    13    14    1
    24    14    15    1
    25    15    16    1
    26    16    19    1
    27    19    20   ar
    28    19    21   ar
    29    16    17    1
    30    17    18    1
    31    10    11   ar
    32    11    12   ar
    33     3     4   ar
    34     4     5   ar
    35     5    40    1
    36    40    41    1
    37    40    42    1
    38    40    43    1
    39     5     6   ar
    40    35    36   ar
    41    36    37   ar
    42    37    32   ar
    43    25    22    1
    44     6     1   ar
    45    12     7   ar
    46    18    13    1
    47    26    29    1
@<TRIPOS>MOLECULE
*****
 43 47 0 0 0
SMALL
GASTEIGER

@<TRIPOS>ATOM
      1 C          59.9761   88.9261    9.4285 C.ar    1  UNL1        0.1351
      2 C          59.8838   89.9103    8.3004 C.ar    1  UNL1        0.0535
      3 C          60.0564   89.4465    6.8844 C.ar    1  UNL1        0.0857
      4 N          60.3212   87.9984    6.5965 N.ar    1  UNL1       -0.2232
      5 C          60.4135   87.0141    7.7247 C.ar    1  UNL1        0.2362
      6 N          60.2410   87.4779    9.1407 N.ar    1  UNL1       -0.2084
      7 C          59.9641   90.4307    5.7563 C.ar    1  UNL1        0.0178
      8 C          58.6374   91.0243    5.3854 C.ar    1  UNL1        0.0012
      9 C          58.5451   92.0085    4.2573 C.ar    1  UNL1       -0.0042
     10 C          59.7795   92.3992    3.4999 C.ar    1  UNL1       -0.0225
     11 C          61.1062   91.8056    3.8707 C.ar    1  UNL1       -0.0042
     12 C          61.1985   90.8213    4.9989 C.ar    1  UNL1        0.0012
     13 C          59.6872   93.3834    2.3717 C.3     1  UNL1        0.0224
     14 C          59.0513   92.9799    1.0745 C.3     1  UNL1        0.0047
     15 C          58.9590   93.9642   -0.0536 C.3     1  UNL1        0.0059
     16 C          59.5025   95.3519    0.1155 C.3     1  UNL1        0.0366
     17 C          60.1384   95.7555    1.4127 C.3     1  UNL1        0.0059
     18 C          60.2307   94.7712    2.5408 C.3     1  UNL1        0.0047
     19 C          59.4102   96.3362   -1.0127 C.2     1  UNL1        0.0500
     20 O          60.6563   96.8011   -1.7063 O.co2   1  UNL1       -0.5492
     21 O          58.0718   96.8555   -1.4473 O.co2   1  UNL1       -0.5492
     22 C          60.7278   89.6369   11.9999 C.3     1  UNL1        0.1525
     23 C          59.5595   90.0459   12.8471 C.3     1  UNL1        0.0506
     24 C          58.6353   89.7990   11.6918 C.3     1  UNL1        0.0948
     25 N          59.8035   89.3899   10.8445 N.pl3   1  UNL1       -0.2868
     26 N          62.7706   89.6137   13.6051 N.am    1  UNL1       -0.3027
     27 C          62.2075   89.5222   12.2178 C.2     1  UNL1        0.2406
     28 O          63.1240   89.3161   11.0485 O.2     1  UNL1       -0.2733
     29 H          62.1690   89.7489   14.3726 H       1  UNL1        0.1495
     30 C          64.2502   89.4990   13.8230 C.3     1  UNL1        0.0941
     31 C          65.0121   90.6468   14.4163 C.3     1  UNL1        0.0476
     32 C          66.1973   94.1358   11.8332 C.ar    1  UNL1        0.0684
     33 C          65.4300   92.9908   11.2413 C.ar    1  UNL1        0.0100
     34 C          65.0350   91.8278   12.1023 C.ar    1  UNL1       -0.0035
     35 C          65.4072   91.8098   13.5553 C.ar    1  UNL1       -0.0204
     36 C          66.1744   92.9547   14.1472 C.ar    1  UNL1       -0.0035
     37 C          66.5695   94.1177   13.2861 C.ar    1  UNL1        0.0100
     38 N          66.9873   96.4617   10.1111 N.1     1  UNL1       -0.1908
     39 C          66.5923   95.2987   10.9721 C.1     1  UNL1        0.1004
     40 C          60.6784   85.5660    7.4369 C.3     1  UNL1        0.4523
     41 F          60.9433   84.1179    7.1490 F       1  UNL1       -0.1632
     42 F          59.2372   85.3760    7.0668 F       1  UNL1       -0.1632
     43 F          62.1196   85.7561    7.8070 F       1  UNL1       -0.1632
@<TRIPOS>UNITY_ATOM_ATTR
20 1
charge -1
@<TRIPOS>BOND
     1    38    39    3
     2    39    32    1
     3    32    33   ar
     4    33    34   ar
     5    34    35   ar
     6    35    31    1
     7    31    30    1
     8    30    26    1
     9    26    27   am
    10    27    28    2
    11    22    27    1
    12    22    23    1
    13    23    24    1
    14    24    25    1
    15    25     1    1
    16     1     2   ar
    17     2     3   ar
    18     3     7    1
    19     7     8   ar
    20     8     9   ar
    21     9    10   ar
    22    13    10    1
    23    13    14    1
    24    14    15    1
    25    15    16    1
    26    16    19    1
    27    19    20   ar
    28    19    21   ar
    29    16    17    1
    30    17    18    1
    31    10    11   ar
    32    11    12   ar
    33     3     4   ar
    34     4     5   ar
    35     5    40    1
    36    40    41    1
    37    40    42    1
    38    40    43    1
    39     5     6   ar
    40    35    36   ar
    41    36    37   ar
    42    37    32   ar
    43    25    22    1
    44     6     1   ar
    45    12     7   ar
    46    18    13    1
    47    26    29    1
@<TRIPOS>MOLECULE
*****
 43 47 0 0 0
SMALL
GASTEIGER

@<TRIPOS>ATOM
      1 C          60.0130   89.1484    9.2978 C.ar    1  UNL1        0.1351
      2 C          59.9459   90.1145    8.1524 C.ar    1  UNL1        0.0535
      3 C          59.9791   89.6079    6.7409 C.ar    1  UNL1        0.0857
      4 N          60.0793   88.1352    6.4749 N.ar    1  UNL1       -0.2232
      5 C          60.1463   87.1689    7.6203 C.ar    1  UNL1        0.2362
      6 N          60.1132   87.6755    9.0318 N.ar    1  UNL1       -0.2084
      7 C          59.9120   90.5741    5.5956 C.ar    1  UNL1        0.0178
      8 C          58.6091   91.2273    5.2406 C.ar    1  UNL1        0.0012
      9 C          58.5421   92.1935    4.0952 C.ar    1  UNL1       -0.0042
     10 C          59.7779   92.5065    3.3047 C.ar    1  UNL1       -0.0225
     11 C          61.0807   91.8534    3.6596 C.ar    1  UNL1       -0.0042
     12 C          61.1478   90.8871    4.8051 C.ar    1  UNL1        0.0012
     13 C          59.7108   93.4727    2.1593 C.3     1  UNL1        0.0224
     14 C          59.0063   93.0865    0.8926 C.3     1  UNL1        0.0047
     15 C          58.9392   94.0527   -0.2528 C.3     1  UNL1        0.0059
     16 C          59.5766   95.4051   -0.1315 C.3     1  UNL1        0.0366
     17 C          60.2811   95.7913    1.1352 C.3     1  UNL1        0.0059
     18 C          60.3482   94.8251    2.2806 C.3     1  UNL1        0.0047
     19 C          59.5095   96.3714   -1.2769 C.2     1  UNL1        0.0500
     20 O          60.7728   96.8545   -1.9255 O.co2   1  UNL1       -0.5492
     21 O          58.1792   96.8544   -1.7737 O.co2   1  UNL1       -0.5492
     22 C          60.8831   89.5349   11.9008 C.3     1  UNL1        0.1525
     23 C          59.9329   90.3714   12.7054 C.3     1  UNL1        0.0506
     24 C          59.0296   90.4914   11.5140 C.3     1  UNL1        0.0948
     25 N          59.9798   89.6550   10.7093 N.pl3   1  UNL1       -0.2868
     26 N          62.9537   89.1751   13.4283 N.am    1  UNL1       -0.3027
     27 C          62.1937   88.8586   12.1744 C.2     1  UNL1        0.2406
     28 O          62.7444   87.8658   11.1941 O.2     1  UNL1       -0.2733
     29 H          62.5923   89.8268   14.0717 H       1  UNL1        0.1495
     30 C          64.2644   88.4988   13.7019 C.3     1  UNL1        0.0941
     31 C          64.3765   87.5050   14.8197 C.3     1  UNL1        0.0476
     32 C          62.6832   83.3648   14.3282 C.ar    1  UNL1        0.0684
     33 C          63.1622   84.1266   13.1281 C.ar    1  UNL1        0.0100
     34 C          63.7267   85.5066   13.2919 C.ar    1  UNL1       -0.0035
     35 C          63.8121   86.1249   14.6559 C.ar    1  UNL1       -0.0204
     36 C          63.3331   85.3632   15.8560 C.ar    1  UNL1       -0.0035
     37 C          62.7686   83.9831   15.6921 C.ar    1  UNL1        0.0100
     38 N          61.5543   80.6047   14.0004 N.1     1  UNL1       -0.1908
     39 C          62.1188   81.9848   14.1643 C.1     1  UNL1        0.1004
     40 C          60.2466   85.6961    7.3542 C.3     1  UNL1        0.4523
     41 F          60.3468   84.2233    7.0881 F       1  UNL1       -0.1632
     42 F          58.7501   85.6008    7.3184 F       1  UNL1       -0.1632
     43 F          61.7431   85.7915    7.3900 F       1  UNL1       -0.1632
@<TRIPOS>UNITY_ATOM_ATTR
20 1
charge -1
@<TRIPOS>BOND
     1    38    39    3
     2    39    32    1
     3    32    33   ar
     4    33    34   ar
     5    34    35   ar
     6    35    31    1
     7    31    30    1
     8    30    26    1
     9    26    27   am
    10    27    28    2
    11    22    27    1
    12    22    23    1
    13    23    24    1
    14    24    25    1
    15    25     1    1
    16     1     2   ar
    17     2     3   ar
    18     3     7    1
    19     7     8   ar
    20     8     9   ar
    21     9    10   ar
    22    13    10    1
    23    13    14    1
    24    14    15    1
    25    15    16    1
    26    16    19    1
    27    19    20   ar
    28    19    21   ar
    29    16    17    1
    30    17    18    1
    31    10    11   ar
    32    11    12   ar
    33     3     4   ar
    34     4     5   ar
    35     5    40    1
    36    40    41    1
    37    40    42    1
    38    40    43    1
    39     5     6   ar
    40    35    36   ar
    41    36    37   ar
    42    37    32   ar
    43    25    22    1
    44     6     1   ar
    45    12     7   ar
    46    18    13    1
    47    26    29    1
@<TRIPOS>MOLECULE
*****
 43 47 0 0 0
SMALL
GASTEIGER

@<TRIPOS>ATOM
      1 C          61.1455   87.6206   10.2579 C.ar    1  UNL1        0.1351
      2 C          62.3342   88.3010   10.8694 C.ar    1  UNL1        0.0535
      3 C          62.1383   89.3433   11.9303 C.ar    1  UNL1        0.0857
      4 N          60.7538   89.7051   12.3796 N.ar    1  UNL1       -0.2232
      5 C          59.5649   89.0247   11.7681 C.ar    1  UNL1        0.2362
      6 N          59.7608   87.9825   10.7073 N.ar    1  UNL1       -0.2084
      7 C          63.3270   90.0236   12.5418 C.ar    1  UNL1        0.0178
      8 C          63.9510   91.2030   11.8563 C.ar    1  UNL1        0.0012
      9 C          65.1398   91.8834   12.4678 C.ar    1  UNL1       -0.0042
     10 C          65.7046   91.3845   13.7647 C.ar    1  UNL1       -0.0225
     11 C          65.0806   90.2051   14.4502 C.ar    1  UNL1       -0.0042
     12 C          63.8919   89.5247   13.8387 C.ar    1  UNL1        0.0012
     13 C          66.8934   92.0649   14.3762 C.3     1  UNL1        0.0224
     14 C          66.7278   92.8940   15.6152 C.3     1  UNL1        0.0047
     15 C          67.9166   93.5744   16.2266 C.3     1  UNL1        0.0059
     16 C          69.2709   93.4257   15.5991 C.3     1  UNL1        0.0366
     17 C          69.4364   92.5966   14.3601 C.3     1  UNL1        0.0059
     18 C          68.2476   91.9162   13.7487 C.3     1  UNL1        0.0047
     19 C          70.4597   94.1061   16.2106 C.2     1  UNL1        0.0500
     20 O          71.0164   93.6154   17.5141 O.co2   1  UNL1       -0.5492
     21 O          71.0916   95.2773   15.5185 O.co2   1  UNL1       -0.5492
     22 C          62.1439   85.3161    9.0857 C.3     1  UNL1        0.1525
     23 C          61.6183   85.1045    7.6968 C.3     1  UNL1        0.0506
     24 C          60.8157   86.3668    7.8082 C.3     1  UNL1        0.0948
     25 N          61.3413   86.5784    9.1971 N.pl3   1  UNL1       -0.2868
     26 N          63.6208   83.2353    9.5750 N.am    1  UNL1       -0.3027
     27 C          63.0831   84.5731    9.9890 C.2     1  UNL1        0.2406
     28 O          63.4845   85.1678   11.3062 O.2     1  UNL1       -0.2733
     29 H          63.3573   82.8450    8.7104 H       1  UNL1        0.1495
     30 C          64.5600   82.4924   10.4783 C.3     1  UNL1        0.0941
     31 C          64.0404   81.8322   11.7209 C.3     1  UNL1        0.0476
     32 C          62.9574   84.3241   15.3080 C.ar    1  UNL1        0.0684
     33 C          61.9704   83.3408   14.7523 C.ar    1  UNL1        0.0100
     34 C          62.3314   82.5102   13.5566 C.ar    1  UNL1       -0.0035
     35 C          63.6794   82.6628   12.9166 C.ar    1  UNL1       -0.0204
     36 C          64.6664   83.6461   13.4724 C.ar    1  UNL1       -0.0035
     37 C          64.3054   84.4768   14.6681 C.ar    1  UNL1        0.0100
     38 N          62.2354   85.9854   17.6994 N.1     1  UNL1       -0.1908
     39 C          62.5964   85.1548   16.5037 C.1     1  UNL1        0.1004
     40 C          58.1804   89.3866   12.2175 C.3     1  UNL1        0.4523
     41 F          56.7957   89.7484   12.6669 F       1  UNL1       -0.1632
     42 F          58.3165   90.7268   11.5578 F       1  UNL1       -0.1632
     43 F          58.0442   88.0463   12.8772 F       1  UNL1       -0.1632
@<TRIPOS>UNITY_ATOM_ATTR
20 1
charge -1
@<TRIPOS>BOND
     1    38    39    3
     2    39    32    1
     3    32    33   ar
     4    33    34   ar
     5    34    35   ar
     6    35    31    1
     7    31    30    1
     8    30    26    1
     9    26    27   am
    10    27    28    2
    11    22    27    1
    12    22    23    1
    13    23    24    1
    14    24    25    1
    15    25     1    1
    16     1     2   ar
    17     2     3   ar
    18     3     7    1
    19     7     8   ar
    20     8     9   ar
    21     9    10   ar
    22    13    10    1
    23    13    14    1
    24    14    15    1
    25    15    16    1
    26    16    19    1
    27    19    20   ar
    28    19    21   ar
    29    16    17    1
    30    17    18    1
    31    10    11   ar
    32    11    12   ar
    33     3     4   ar
    34     4     5   ar
    35     5    40    1
    36    40    41    1
    37    40    42    1
    38    40    43    1
    39     5     6   ar
    40    35    36   ar
    41    36    37   ar
    42    37    32   ar
    43    25    22    1
    44     6     1   ar
    45    12     7   ar
    46    18    13    1
    47    26    29    1
