@<TRIPOS>MOLECULE
*****
 30 33 0 0 0
SMALL
GASTEIGER

@<TRIPOS>ATOM
      1 C          63.7136   87.8176   16.0727 C.3     1  UNL1        0.2100
      2 C          64.3692   88.3670   14.8405 C.3     1  UNL1        0.1468
      3 N          64.2880   89.8636   14.9004 N.am    1  UNL1       -0.2213
      4 C          63.5822   90.2391   16.1696 C.2     1  UNL1        0.4088
      5 O          63.2837   91.6342   16.6329 O.2     1  UNL1       -0.2258
      6 O          63.2272   88.9746   16.8942 O.3     1  UNL1       -0.4345
      7 C          64.8193   90.8173   13.8716 C.ar    1  UNL1        0.0572
      8 C          64.0852   91.0103   12.5779 C.ar    1  UNL1        0.0163
      9 C          64.6165   91.9639   11.5492 C.ar    1  UNL1        0.0162
     10 C          65.8819   92.7246   11.8143 C.ar    1  UNL1        0.0541
     11 C          66.6160   92.5315   13.1080 C.ar    1  UNL1        0.0162
     12 C          66.0846   91.5779   14.1367 C.ar    1  UNL1        0.0163
     13 N          66.4132   93.6782   10.7855 N.am    1  UNL1       -0.2540
     14 C          65.9234   95.0956   10.7529 C.3     1  UNL1        0.1303
     15 C          66.4547   96.0493    9.7241 C.3     1  UNL1        0.1646
     16 O          67.4758   95.5855    8.7280 O.3     1  UNL1       -0.3426
     17 C          67.9656   94.1681    8.7607 C.3     1  UNL1        0.2275
     18 C          67.4343   93.2145    9.7894 C.2     1  UNL1        0.2596
     19 O          67.9242   91.7970    9.8221 O.2     1  UNL1       -0.2718
     20 C          63.5697   86.3659   16.4222 C.3     1  UNL1        0.1355
     21 C          62.6183   84.5266   14.8532 C.2     1  UNL1        0.2520
     22 O          61.2401   84.7855   15.3854 O.2     1  UNL1       -0.2696
     23 N          63.7831   85.3168   15.3716 N.am    1  UNL1       -0.2971
     24 H          64.6878   85.1469   15.0223 H       1  UNL1        0.1499
     25 C          63.9528   82.1435   10.3343 C.3     1  UNL1        0.0382
     26 C          63.4452   82.3821   11.7254 C.ar    1  UNL1        0.0078
     27 C          62.8755   81.3441   12.6462 C.ar    1  UNL1        0.0028
     28 C          62.4964   82.0211   13.9300 C.ar    1  UNL1        0.0112
     29 C          62.8318   83.4775   13.8026 C.ar    1  UNL1        0.0825
     30 S          63.4182   83.7007   12.4402 S.2     1  UNL1       -0.0868
@<TRIPOS>BOND
     1    25    26    1
     2    26    27   ar
     3    27    28   ar
     4    28    29   ar
     5    29    21    1
     6    21    22    2
     7    21    23   am
     8    23    20    1
     9     1    20    1
    10     1     2    1
    11     2     3    1
    12     3     7    1
    13     7     8   ar
    14     8     9   ar
    15     9    10   ar
    16    10    13    1
    17    13    14    1
    18    14    15    1
    19    15    16    1
    20    16    17    1
    21    17    18    1
    22    18    19    2
    23    10    11   ar
    24    11    12   ar
    25     3     4   am
    26     4     5    2
    27     4     6    1
    28    29    30   ar
    29    30    26   ar
    30     6     1    1
    31    12     7   ar
    32    18    13   am
    33    23    24    1
@<TRIPOS>MOLECULE
*****
 30 33 0 0 0
SMALL
GASTEIGER

@<TRIPOS>ATOM
      1 C          63.7221   88.5481   15.9168 C.3     1  UNL1        0.2100
      2 C          64.3435   89.1013   14.6686 C.3     1  UNL1        0.1468
      3 N          64.3686   90.5964   14.7867 N.am    1  UNL1       -0.2213
      4 C          63.7627   90.9673   16.1078 C.2     1  UNL1        0.4088
      5 O          63.5873   92.3596   16.6375 O.2     1  UNL1       -0.2258
      6 O          63.3632   89.7014   16.8063 O.3     1  UNL1       -0.4345
      7 C          64.9053   91.5528   13.7633 C.ar    1  UNL1        0.0572
      8 C          65.9905   92.5190   14.1360 C.ar    1  UNL1        0.0163
      9 C          66.5271   93.4753   13.1126 C.ar    1  UNL1        0.0162
     10 C          65.9787   93.4655   11.7165 C.ar    1  UNL1        0.0541
     11 C          64.8936   92.4993   11.3438 C.ar    1  UNL1        0.0162
     12 C          64.3569   91.5430   12.3672 C.ar    1  UNL1        0.0163
     13 N          66.5154   94.4219   10.6931 N.am    1  UNL1       -0.2540
     14 C          67.0981   93.9011    9.4127 C.3     1  UNL1        0.1303
     15 C          67.6348   94.8575    8.3893 C.3     1  UNL1        0.1646
     16 O          67.5889   96.3346    8.6463 O.3     1  UNL1       -0.3426
     17 C          67.0062   96.8554    9.9268 C.3     1  UNL1        0.2275
     18 C          66.4695   95.8990   10.9501 C.2     1  UNL1        0.2596
     19 O          65.8869   96.4197   12.2306 O.2     1  UNL1       -0.2718
     20 C          63.4989   87.0966   16.2219 C.3     1  UNL1        0.1355
     21 C          63.0236   84.7405   15.2355 C.2     1  UNL1        0.2520
     22 O          62.0916   84.4516   16.3747 O.2     1  UNL1       -0.2696
     23 N          63.7272   86.0630   15.1591 N.am    1  UNL1       -0.2971
     24 H          64.3389   86.2527   14.4114 H       1  UNL1        0.1499
     25 C          62.7210   80.2886   12.4123 C.3     1  UNL1        0.0382
     26 C          63.1129   81.6606   12.8750 C.ar    1  UNL1        0.0078
     27 C          64.0939   82.5722   12.1993 C.ar    1  UNL1        0.0028
     28 C          64.1799   83.8369   13.0013 C.ar    1  UNL1        0.0112
     29 C          63.2520   83.7069   14.1727 C.ar    1  UNL1        0.0825
     30 S          62.5925   82.3619   14.0946 S.2     1  UNL1       -0.0868
@<TRIPOS>BOND
     1    25    26    1
     2    26    27   ar
     3    27    28   ar
     4    28    29   ar
     5    29    21    1
     6    21    22    2
     7    21    23   am
     8    23    20    1
     9     1    20    1
    10     1     2    1
    11     2     3    1
    12     3     7    1
    13     7     8   ar
    14     8     9   ar
    15     9    10   ar
    16    10    13    1
    17    13    14    1
    18    14    15    1
    19    15    16    1
    20    16    17    1
    21    17    18    1
    22    18    19    2
    23    10    11   ar
    24    11    12   ar
    25     3     4   am
    26     4     5    2
    27     4     6    1
    28    29    30   ar
    29    30    26   ar
    30     6     1    1
    31    12     7   ar
    32    18    13   am
    33    23    24    1
@<TRIPOS>MOLECULE
*****
 30 33 0 0 0
SMALL
GASTEIGER

@<TRIPOS>ATOM
      1 C          65.2567   91.6317   14.8221 C.3     1  UNL1        0.2100
      2 C          65.3807   90.3332   14.0816 C.3     1  UNL1        0.1468
      3 N          64.3096   89.4100   14.5822 N.am    1  UNL1       -0.2213
      4 C          63.5237   90.1380   15.6321 C.2     1  UNL1        0.4088
      5 O          62.3573   89.5893   16.3991 O.2     1  UNL1       -0.2258
      6 O          64.1090   91.5111   15.7804 O.3     1  UNL1       -0.4345
      7 C          64.0671   88.0054   14.1149 C.ar    1  UNL1        0.0572
      8 C          64.5185   86.8472   14.9545 C.ar    1  UNL1        0.0163
      9 C          64.2759   85.4427   14.4872 C.ar    1  UNL1        0.0162
     10 C          63.5820   85.1963   13.1804 C.ar    1  UNL1        0.0541
     11 C          63.1306   86.3545   12.3409 C.ar    1  UNL1        0.0162
     12 C          63.3731   87.7590   12.8081 C.ar    1  UNL1        0.0163
     13 N          63.3394   83.7917   12.7132 N.am    1  UNL1       -0.2540
     14 C          63.8492   83.3481   11.3740 C.3     1  UNL1        0.1303
     15 C          63.6067   81.9435   10.9068 C.3     1  UNL1        0.1646
     16 O          62.8543   80.9825   11.7787 O.3     1  UNL1       -0.3426
     17 C          62.3445   81.4260   13.1179 C.3     1  UNL1        0.2275
     18 C          62.5870   82.8306   13.5851 C.2     1  UNL1        0.2596
     19 O          62.0772   83.2742   14.9243 O.2     1  UNL1       -0.2718
     20 C          66.1275   92.8390   14.6368 C.3     1  UNL1        0.1355
     21 C          67.0597   93.1484   12.2316 C.2     1  UNL1        0.2520
     22 O          67.9940   91.9946   12.4452 O.2     1  UNL1       -0.2696
     23 N          66.1265   93.5707   13.3274 N.am    1  UNL1       -0.2971
     24 H          65.5133   94.3280   13.1872 H       1  UNL1        0.1499
     25 C          66.2813   96.8513    8.5486 C.3     1  UNL1        0.0382
     26 C          66.7009   95.5821    9.2292 C.ar    1  UNL1        0.0078
     27 C          67.4134   94.4301    8.5850 C.ar    1  UNL1        0.0028
     28 C          67.6345   93.3782    9.6312 C.ar    1  UNL1        0.0112
     29 C          67.0587   93.8801   10.9221 C.ar    1  UNL1        0.0825
     30 S          66.4817   95.2422   10.6737 S.2     1  UNL1       -0.0868
@<TRIPOS>BOND
     1    25    26    1
     2    26    27   ar
     3    27    28   ar
     4    28    29   ar
     5    29    21    1
     6    21    22    2
     7    21    23   am
     8    23    20    1
     9     1    20    1
    10     1     2    1
    11     2     3    1
    12     3     7    1
    13     7     8   ar
    14     8     9   ar
    15     9    10   ar
    16    10    13    1
    17    13    14    1
    18    14    15    1
    19    15    16    1
    20    16    17    1
    21    17    18    1
    22    18    19    2
    23    10    11   ar
    24    11    12   ar
    25     3     4   am
    26     4     5    2
    27     4     6    1
    28    29    30   ar
    29    30    26   ar
    30     6     1    1
    31    12     7   ar
    32    18    13   am
    33    23    24    1
@<TRIPOS>MOLECULE
*****
 30 33 0 0 0
SMALL
GASTEIGER

@<TRIPOS>ATOM
      1 C          65.4001   91.6239   14.9789 C.3     1  UNL1        0.2100
      2 C          65.5484   90.3168   14.2582 C.3     1  UNL1        0.1468
      3 N          64.3855   89.4464   14.6326 N.am    1  UNL1       -0.2213
      4 C          63.5185   90.2157   15.5847 C.2     1  UNL1        0.4088
      5 O          62.2476   89.7252   16.2126 O.2     1  UNL1       -0.2258
      6 O          64.1455   91.5614   15.7988 O.3     1  UNL1       -0.4345
      7 C          64.1338   88.0517   14.1411 C.ar    1  UNL1        0.0572
      8 C          63.3835   87.8316   12.8610 C.ar    1  UNL1        0.0163
      9 C          63.1318   86.4369   12.3696 C.ar    1  UNL1        0.0162
     10 C          63.6304   85.2624   13.1583 C.ar    1  UNL1        0.0541
     11 C          64.3807   85.4826   14.4383 C.ar    1  UNL1        0.0162
     12 C          64.6324   86.8772   14.9297 C.ar    1  UNL1        0.0163
     13 N          63.3787   83.8677   12.6668 N.am    1  UNL1       -0.2540
     14 C          63.9133   83.4342   11.3341 C.3     1  UNL1        0.1303
     15 C          63.6616   82.0395   10.8426 C.3     1  UNL1        0.1646
     16 O          62.8753   81.0783   11.6839 O.3     1  UNL1       -0.3426
     17 C          62.3406   81.5119   13.0167 C.3     1  UNL1        0.2275
     18 C          62.5924   82.9065   13.5081 C.2     1  UNL1        0.2596
     19 O          62.0577   83.3401   14.8409 O.2     1  UNL1       -0.2718
     20 C          66.3412   92.7889   14.8946 C.3     1  UNL1        0.1355
     21 C          66.7087   93.6372   12.4666 C.2     1  UNL1        0.2520
     22 O          67.4723   92.3868   12.1454 O.2     1  UNL1       -0.2696
     23 N          66.1431   93.8383   13.8413 N.am    1  UNL1       -0.2971
     24 H          65.6419   94.6590   14.0522 H       1  UNL1        0.1499
     25 C          66.5211   96.0902    7.7945 C.3     1  UNL1        0.0382
     26 C          66.4245   95.8141    9.2657 C.ar    1  UNL1        0.0078
     27 C          65.9874   96.7888   10.3188 C.ar    1  UNL1        0.0028
     28 C          66.0407   96.0919   11.6461 C.ar    1  UNL1        0.0112
     29 C          66.5107   94.6866   11.4133 C.ar    1  UNL1        0.0825
     30 S          66.7479   94.5149    9.9422 S.2     1  UNL1       -0.0868
@<TRIPOS>BOND
     1    25    26    1
     2    26    27   ar
     3    27    28   ar
     4    28    29   ar
     5    29    21    1
     6    21    22    2
     7    21    23   am
     8    23    20    1
     9     1    20    1
    10     1     2    1
    11     2     3    1
    12     3     7    1
    13     7     8   ar
    14     8     9   ar
    15     9    10   ar
    16    10    13    1
    17    13    14    1
    18    14    15    1
    19    15    16    1
    20    16    17    1
    21    17    18    1
    22    18    19    2
    23    10    11   ar
    24    11    12   ar
    25     3     4   am
    26     4     5    2
    27     4     6    1
    28    29    30   ar
    29    30    26   ar
    30     6     1    1
    31    12     7   ar
    32    18    13   am
    33    23    24    1
@<TRIPOS>MOLECULE
*****
 30 33 0 0 0
SMALL
GASTEIGER

@<TRIPOS>ATOM
      1 C          65.0676   91.2359   15.1551 C.3     1  UNL1        0.2100
      2 C          65.2802   89.8990   14.5089 C.3     1  UNL1        0.1468
      3 N          64.1015   89.0320   14.8387 N.am    1  UNL1       -0.2213
      4 C          63.1603   89.8330   15.6888 C.2     1  UNL1        0.4088
      5 O          61.8518   89.3557   16.2456 O.2     1  UNL1       -0.2258
      6 O          63.7574   91.1951   15.8844 O.3     1  UNL1       -0.4345
      7 C          63.8994   87.6131   14.3962 C.ar    1  UNL1        0.0572
      8 C          63.3355   87.3246   13.0365 C.ar    1  UNL1        0.0163
      9 C          63.1334   85.9057   12.5940 C.ar    1  UNL1        0.0162
     10 C          63.4951   84.7753   13.5112 C.ar    1  UNL1        0.0541
     11 C          64.0590   85.0637   14.8709 C.ar    1  UNL1        0.0162
     12 C          64.2611   86.4826   15.3134 C.ar    1  UNL1        0.0163
     13 N          63.2930   83.3563   13.0686 N.am    1  UNL1       -0.2540
     14 C          62.9104   82.3060   14.0688 C.3     1  UNL1        0.1303
     15 C          62.7083   80.8870   13.6263 C.3     1  UNL1        0.1646
     16 O          62.8887   80.5185   12.1835 O.3     1  UNL1       -0.3426
     17 C          63.2714   81.5689   11.1833 C.3     1  UNL1        0.2275
     18 C          63.4735   82.9877   11.6259 C.2     1  UNL1        0.2596
     19 O          63.8561   84.0381   10.6257 O.2     1  UNL1       -0.2718
     20 C          66.0012   92.4078   15.0845 C.3     1  UNL1        0.1355
     21 C          66.0175   92.7391   12.5077 C.2     1  UNL1        0.2520
     22 O          64.5382   92.4948   12.4670 O.2     1  UNL1       -0.2696
     23 N          66.7491   92.6956   13.8165 N.am    1  UNL1       -0.2971
     24 H          67.7201   92.8560   13.8433 H       1  UNL1        0.1499
     25 C          69.1346   92.1907    8.2811 C.3     1  UNL1        0.0382
     26 C          68.1982   92.7748    9.2969 C.ar    1  UNL1        0.0078
     27 C          67.6343   94.1647    9.2799 C.ar    1  UNL1        0.0028
     28 C          66.7488   94.3205   10.4806 C.ar    1  UNL1        0.0112
     29 C          66.7654   93.0269   11.2397 C.ar    1  UNL1        0.0825
     30 S          67.6611   92.0716   10.5082 S.2     1  UNL1       -0.0868
@<TRIPOS>BOND
     1    25    26    1
     2    26    27   ar
     3    27    28   ar
     4    28    29   ar
     5    29    21    1
     6    21    22    2
     7    21    23   am
     8    23    20    1
     9     1    20    1
    10     1     2    1
    11     2     3    1
    12     3     7    1
    13     7     8   ar
    14     8     9   ar
    15     9    10   ar
    16    10    13    1
    17    13    14    1
    18    14    15    1
    19    15    16    1
    20    16    17    1
    21    17    18    1
    22    18    19    2
    23    10    11   ar
    24    11    12   ar
    25     3     4   am
    26     4     5    2
    27     4     6    1
    28    29    30   ar
    29    30    26   ar
    30     6     1    1
    31    12     7   ar
    32    18    13   am
    33    23    24    1
@<TRIPOS>MOLECULE
*****
 30 33 0 0 0
SMALL
GASTEIGER

@<TRIPOS>ATOM
      1 C          60.1461   88.7231    8.6669 C.3     1  UNL1        0.2100
      2 C          61.1157   89.6802    9.2943 C.3     1  UNL1        0.1468
      3 N          61.6476   89.0474   10.5459 N.am    1  UNL1       -0.2213
      4 C          61.0067   87.6991   10.6921 C.2     1  UNL1        0.4088
      5 O          61.2509   86.7227   11.8043 O.2     1  UNL1       -0.2258
      6 O          60.0787   87.4986    9.5308 O.3     1  UNL1       -0.4345
      7 C          62.6453   89.6560   11.4864 C.ar    1  UNL1        0.0572
      8 C          63.1920   91.0263   11.2159 C.ar    1  UNL1        0.0163
      9 C          64.1897   91.6348   12.1562 C.ar    1  UNL1        0.0162
     10 C          64.6406   90.8730   13.3671 C.ar    1  UNL1        0.0541
     11 C          64.0939   89.5026   13.6376 C.ar    1  UNL1        0.0162
     12 C          63.0963   88.8941   12.6973 C.ar    1  UNL1        0.0163
     13 N          65.6383   91.4816   14.3076 N.am    1  UNL1       -0.2540
     14 C          67.0736   91.6171   13.8934 C.3     1  UNL1        0.1303
     15 C          68.0713   92.2257   14.8339 C.3     1  UNL1        0.1646
     16 O          67.6336   92.6987   16.1884 O.3     1  UNL1       -0.3426
     17 C          66.1982   92.5631   16.6025 C.3     1  UNL1        0.2275
     18 C          65.2006   91.9546   15.6621 C.2     1  UNL1        0.2596
     19 O          63.7653   91.8190   16.0762 O.2     1  UNL1       -0.2718
     20 C          59.3786   88.9504    7.3984 C.3     1  UNL1        0.1355
     21 C          59.1340   90.7254    5.5169 C.2     1  UNL1        0.2520
     22 O          57.6797   90.8786    5.8506 O.2     1  UNL1       -0.2696
     23 N          59.9835   89.7612    6.2908 N.am    1  UNL1       -0.2971
     24 H          60.9380   89.6606    6.0719 H       1  UNL1        0.1499
     25 C          62.6347   92.8544    2.1863 C.3     1  UNL1        0.0382
     26 C          61.3480   92.5148    2.8785 C.ar    1  UNL1        0.0078
     27 C          59.9916   93.0531    2.5317 C.ar    1  UNL1        0.0028
     28 C          58.9971   92.4483    3.4779 C.ar    1  UNL1        0.0112
     29 C          59.7389   91.5362    4.4094 C.ar    1  UNL1        0.0825
     30 S          61.1918   91.5773    4.0390 S.2     1  UNL1       -0.0868
@<TRIPOS>BOND
     1    25    26    1
     2    26    27   ar
     3    27    28   ar
     4    28    29   ar
     5    29    21    1
     6    21    22    2
     7    21    23   am
     8    23    20    1
     9     1    20    1
    10     1     2    1
    11     2     3    1
    12     3     7    1
    13     7     8   ar
    14     8     9   ar
    15     9    10   ar
    16    10    13    1
    17    13    14    1
    18    14    15    1
    19    15    16    1
    20    16    17    1
    21    17    18    1
    22    18    19    2
    23    10    11   ar
    24    11    12   ar
    25     3     4   am
    26     4     5    2
    27     4     6    1
    28    29    30   ar
    29    30    26   ar
    30     6     1    1
    31    12     7   ar
    32    18    13   am
    33    23    24    1
