@<TRIPOS>MOLECULE
*****
 26 29 0 0 0
SMALL
GASTEIGER

@<TRIPOS>ATOM
      1 N          63.1913   89.1592   12.4030 N.ar    1  UNL1       -0.2077
      2 C          62.4122   89.6003   11.1995 C.ar    1  UNL1        0.0999
      3 C          61.8932   88.3742   10.5085 C.ar    1  UNL1        0.0220
      4 C          62.3515   87.1755   11.2849 C.ar    1  UNL1        0.0187
      5 C          62.1419   85.7048   11.0770 C.ar    1  UNL1       -0.0030
      6 C          62.7348   84.7192   12.0401 C.ar    1  UNL1       -0.0246
      7 C          63.5370   85.2044   13.2108 C.ar    1  UNL1       -0.0232
      8 C          63.7466   86.6750   13.4188 C.ar    1  UNL1        0.0144
      9 C          63.1538   87.6606   12.4558 C.ar    1  UNL1        0.0822
     10 C          64.2103   84.3981   14.2818 C.3     1  UNL1        0.0431
     11 C          64.2474   82.9076   14.4462 C.3     1  UNL1        0.0733
     12 N          63.6206   81.8553   13.5805 N.3     1  UNL1       -0.2969
     13 C          62.8017   82.0335   12.3364 C.3     1  UNL1        0.0733
     14 C          62.4075   83.3081   11.6508 C.3     1  UNL1        0.0431
     15 H          63.0146   81.3322   14.2125 H       1  UNL1        0.1233
     16 S          63.8860   90.0588   13.3819 S.O2    1  UNL1        0.0861
     17 O          63.2372   89.3242   14.5174 O.2     1  UNL1       -0.1476
     18 O          64.5347   90.7934   12.2463 O.2     1  UNL1       -0.1476
     19 C          66.5340   92.5700   14.9411 C.ar    1  UNL1        0.1401
     20 C          65.9701   92.7576   16.3184 C.ar    1  UNL1        0.0370
     21 C          64.7115   92.0454   16.7167 C.ar    1  UNL1        0.0045
     22 C          64.0168   91.1459   15.7380 C.ar    1  UNL1        0.0206
     23 C          64.5807   90.9583   14.3607 C.ar    1  UNL1        0.1307
     24 C          65.8393   91.6705   13.9623 C.ar    1  UNL1        0.0573
     25 C          68.9226   93.4121   15.5206 C.3     1  UNL1        0.2525
     26 O          67.7927   93.2822   14.5427 O.3     1  UNL1       -0.4714
@<TRIPOS>BOND
     1    25    26    1
     2    26    19    1
     3    19    20   ar
     4    20    21   ar
     5    21    22   ar
     6    22    23   ar
     7    23    16    1
     8    16    17    2
     9    16    18    2
    10    16     1    1
    11     1     2   ar
    12     2     3   ar
    13     3     4   ar
    14     4     5   ar
    15     5     6   ar
    16     6     7   ar
    17     7     8   ar
    18     8     9   ar
    19     7    10    1
    20    10    11    1
    21    11    12    1
    22    12    13    1
    23    13    14    1
    24    23    24   ar
    25    24    19   ar
    26     9     1   ar
    27     9     4   ar
    28    14     6    1
    29    12    15    1
@<TRIPOS>MOLECULE
*****
 26 29 0 0 0
SMALL
GASTEIGER

@<TRIPOS>ATOM
      1 N          63.1372   89.1311   11.9318 N.ar    1  UNL1       -0.2077
      2 C          62.2268   89.3621   10.7623 C.ar    1  UNL1        0.0999
      3 C          61.6325   88.0419   10.3697 C.ar    1  UNL1        0.0220
      4 C          62.1757   86.9951   11.2965 C.ar    1  UNL1        0.0187
      5 C          61.9436   85.5158   11.3861 C.ar    1  UNL1       -0.0030
      6 C          62.6416   84.7097   12.4412 C.ar    1  UNL1       -0.0246
      7 C          63.5715   85.3828   13.4065 C.ar    1  UNL1       -0.0232
      8 C          63.8036   86.8620   13.3170 C.ar    1  UNL1        0.0144
      9 C          63.1057   87.6682   12.2620 C.ar    1  UNL1        0.0822
     10 C          64.3617   84.7709   14.5252 C.3     1  UNL1        0.0431
     11 C          64.4169   83.3347   14.9546 C.3     1  UNL1        0.0733
     12 N          63.6958   82.1559   14.3715 N.3     1  UNL1       -0.2969
     13 C          62.7412   82.1218   13.2150 C.3     1  UNL1        0.0733
     14 C          62.2720   83.2584   12.3559 C.3     1  UNL1        0.0431
     15 H          63.1652   81.7692   15.1522 H       1  UNL1        0.1233
     16 S          63.9386   90.1789   12.6458 S.O2    1  UNL1        0.0861
     17 O          63.9540   91.0155   11.4009 O.2     1  UNL1       -0.1476
     18 O          63.9232   89.3423   13.8907 O.2     1  UNL1       -0.1476
     19 C          66.1323   93.4195   13.3061 C.ar    1  UNL1        0.1401
     20 C          66.3428   93.3222   14.7882 C.ar    1  UNL1        0.0370
     21 C          65.7518   92.1772   15.5560 C.ar    1  UNL1        0.0045
     22 C          64.9504   91.1294   14.8419 C.ar    1  UNL1        0.0206
     23 C          64.7400   91.2267   13.3598 C.ar    1  UNL1        0.1307
     24 C          65.3310   92.3718   12.5921 C.ar    1  UNL1        0.0573
     25 C          66.2742   94.8369   11.1334 C.3     1  UNL1        0.2525
     26 O          66.7233   94.5646   12.5384 O.3     1  UNL1       -0.4714
@<TRIPOS>BOND
     1    25    26    1
     2    26    19    1
     3    19    20   ar
     4    20    21   ar
     5    21    22   ar
     6    22    23   ar
     7    23    16    1
     8    16    17    2
     9    16    18    2
    10    16     1    1
    11     1     2   ar
    12     2     3   ar
    13     3     4   ar
    14     4     5   ar
    15     5     6   ar
    16     6     7   ar
    17     7     8   ar
    18     8     9   ar
    19     7    10    1
    20    10    11    1
    21    11    12    1
    22    12    13    1
    23    13    14    1
    24    23    24   ar
    25    24    19   ar
    26     9     1   ar
    27     9     4   ar
    28    14     6    1
    29    12    15    1
@<TRIPOS>MOLECULE
*****
 26 29 0 0 0
SMALL
GASTEIGER

@<TRIPOS>ATOM
      1 N          63.5026   87.7772   15.6753 N.ar    1  UNL1       -0.2077
      2 C          63.0992   87.7402   17.1195 C.ar    1  UNL1        0.0999
      3 C          62.6888   86.3358   17.4502 C.ar    1  UNL1        0.0220
      4 C          62.8387   85.5050   16.2104 C.ar    1  UNL1        0.0187
      5 C          62.5821   84.0522   15.9387 C.ar    1  UNL1       -0.0030
      6 C          62.8286   83.4904   14.5698 C.ar    1  UNL1       -0.0246
      7 C          63.3315   84.3812   13.4729 C.ar    1  UNL1       -0.0232
      8 C          63.5881   85.8339   13.7446 C.ar    1  UNL1        0.0144
      9 C          63.3417   86.3958   15.1134 C.ar    1  UNL1        0.0822
     10 C          63.6405   84.0273   12.0483 C.3     1  UNL1        0.0431
     11 C          63.5229   82.6950   11.3690 C.3     1  UNL1        0.0733
     12 N          63.0672   81.3879   11.9464 N.3     1  UNL1       -0.2969
     13 C          62.6166   81.0899   13.3458 C.3     1  UNL1        0.0733
     14 C          62.5104   82.0256   14.5133 C.3     1  UNL1        0.0431
     15 H          63.8495   80.7525   11.7892 H       1  UNL1        0.1233
     16 S          63.9828   88.9839   14.9246 S.O2    1  UNL1        0.0861
     17 O          65.2693   88.2783   14.6134 O.2     1  UNL1       -0.1476
     18 O          62.6961   89.6894   15.2358 O.2     1  UNL1       -0.1476
     19 C          65.9449   92.3208   14.0500 C.ar    1  UNL1        0.1401
     20 C          65.4229   92.6039   12.6725 C.ar    1  UNL1        0.0370
     21 C          64.4209   91.6802   12.0458 C.ar    1  UNL1        0.0045
     22 C          63.9408   90.4736   12.7964 C.ar    1  UNL1        0.0206
     23 C          64.4628   90.1905   14.1739 C.ar    1  UNL1        0.1307
     24 C          65.4649   91.1142   14.8007 C.ar    1  UNL1        0.0573
     25 C          67.5174   92.9273   16.0272 C.3     1  UNL1        0.2525
     26 O          66.9469   93.2444   14.6767 O.3     1  UNL1       -0.4714
@<TRIPOS>BOND
     1    25    26    1
     2    26    19    1
     3    19    20   ar
     4    20    21   ar
     5    21    22   ar
     6    22    23   ar
     7    23    16    1
     8    16    17    2
     9    16    18    2
    10    16     1    1
    11     1     2   ar
    12     2     3   ar
    13     3     4   ar
    14     4     5   ar
    15     5     6   ar
    16     6     7   ar
    17     7     8   ar
    18     8     9   ar
    19     7    10    1
    20    10    11    1
    21    11    12    1
    22    12    13    1
    23    13    14    1
    24    23    24   ar
    25    24    19   ar
    26     9     1   ar
    27     9     4   ar
    28    14     6    1
    29    12    15    1
@<TRIPOS>MOLECULE
*****
 26 29 0 0 0
SMALL
GASTEIGER

@<TRIPOS>ATOM
      1 N          63.5132   87.3914   13.2283 N.ar    1  UNL1       -0.2077
      2 C          63.8885   85.9843   13.5881 C.ar    1  UNL1        0.0999
      3 C          63.2588   85.0654   12.5836 C.ar    1  UNL1        0.0220
      4 C          62.4944   85.9045   11.6030 C.ar    1  UNL1        0.0187
      5 C          61.6754   85.5453   10.3987 C.ar    1  UNL1       -0.0030
      6 C          61.0138   86.6237    9.5928 C.ar    1  UNL1       -0.0246
      7 C          61.1711   88.0611    9.9913 C.ar    1  UNL1       -0.0232
      8 C          61.9900   88.4204   11.1955 C.ar    1  UNL1        0.0144
      9 C          62.6517   87.3421   12.0014 C.ar    1  UNL1        0.0822
     10 C          60.6008   89.2821    9.3323 C.3     1  UNL1        0.0431
     11 C          59.7323   89.3669    8.1122 C.3     1  UNL1        0.0733
     12 N          59.2198   88.2519    7.2497 N.3     1  UNL1       -0.2969
     13 C          59.4490   86.7766    7.3942 C.3     1  UNL1        0.0733
     14 C          60.2474   86.0519    8.4370 C.3     1  UNL1        0.0431
     15 H          59.5630   88.4735    6.3151 H       1  UNL1        0.1233
     16 S          63.9269   88.6303   13.9658 S.O2    1  UNL1        0.0861
     17 O          63.9226   87.8641   15.2553 O.2     1  UNL1       -0.1476
     18 O          63.9313   89.3965   12.6762 O.2     1  UNL1       -0.1476
     19 C          65.9055   91.9295   14.9406 C.ar    1  UNL1        0.1401
     20 C          65.1679   92.3472   16.1782 C.ar    1  UNL1        0.0370
     21 C          64.0167   91.5258   16.6783 C.ar    1  UNL1        0.0045
     22 C          63.6031   90.2869   15.9409 C.ar    1  UNL1        0.0206
     23 C          64.3406   89.8692   14.7032 C.ar    1  UNL1        0.1307
     24 C          65.4918   90.6906   14.2032 C.ar    1  UNL1        0.0573
     25 C          67.9811   93.4184   15.4151 C.3     1  UNL1        0.2525
     26 O          67.0567   92.7509   14.4405 O.3     1  UNL1       -0.4714
@<TRIPOS>BOND
     1    25    26    1
     2    26    19    1
     3    19    20   ar
     4    20    21   ar
     5    21    22   ar
     6    22    23   ar
     7    23    16    1
     8    16    17    2
     9    16    18    2
    10    16     1    1
    11     1     2   ar
    12     2     3   ar
    13     3     4   ar
    14     4     5   ar
    15     5     6   ar
    16     6     7   ar
    17     7     8   ar
    18     8     9   ar
    19     7    10    1
    20    10    11    1
    21    11    12    1
    22    12    13    1
    23    13    14    1
    24    23    24   ar
    25    24    19   ar
    26     9     1   ar
    27     9     4   ar
    28    14     6    1
    29    12    15    1
@<TRIPOS>MOLECULE
*****
 26 29 0 0 0
SMALL
GASTEIGER

@<TRIPOS>ATOM
      1 N          63.5085   87.7653   15.7197 N.ar    1  UNL1       -0.2077
      2 C          63.0878   87.7268   17.1589 C.ar    1  UNL1        0.0999
      3 C          62.6568   86.3260   17.4786 C.ar    1  UNL1        0.0220
      4 C          62.8112   85.4988   16.2369 C.ar    1  UNL1        0.0187
      5 C          62.5404   84.0505   15.9557 C.ar    1  UNL1       -0.0030
      6 C          62.7960   83.4917   14.5872 C.ar    1  UNL1       -0.0246
      7 C          63.3224   84.3811   13.5003 C.ar    1  UNL1       -0.0232
      8 C          63.5931   85.8294   13.7814 C.ar    1  UNL1        0.0144
      9 C          63.3376   86.3883   15.1498 C.ar    1  UNL1        0.0822
     10 C          63.6437   84.0297   12.0778 C.3     1  UNL1        0.0431
     11 C          63.5180   82.7019   11.3912 C.3     1  UNL1        0.0733
     12 N          63.0400   81.3979   11.9574 N.3     1  UNL1       -0.2969
     13 C          62.5696   81.0992   13.3501 C.3     1  UNL1        0.0733
     14 C          62.4610   82.0311   14.5205 C.3     1  UNL1        0.0431
     15 H          63.8164   80.7538   11.8064 H       1  UNL1        0.1233
     16 S          64.0119   88.9693   14.9800 S.O2    1  UNL1        0.0861
     17 O          62.7440   89.7006   15.3077 O.2     1  UNL1       -0.1476
     18 O          65.2798   88.2378   14.6523 O.2     1  UNL1       -0.1476
     19 C          64.5287   91.6634   12.1122 C.ar    1  UNL1        0.1401
     20 C          65.5222   92.5811   12.7611 C.ar    1  UNL1        0.0370
     21 C          66.0121   92.2948   14.1496 C.ar    1  UNL1        0.0045
     22 C          65.5087   91.0909   14.8892 C.ar    1  UNL1        0.0206
     23 C          64.5152   90.1732   14.2404 C.ar    1  UNL1        0.1307
     24 C          64.0253   90.4595   12.8518 C.ar    1  UNL1        0.0573
     25 C          62.9559   91.1047   10.1212 C.3     1  UNL1        0.2525
     26 O          64.0388   91.9497   10.7237 O.3     1  UNL1       -0.4714
@<TRIPOS>BOND
     1    25    26    1
     2    26    19    1
     3    19    20   ar
     4    20    21   ar
     5    21    22   ar
     6    22    23   ar
     7    23    16    1
     8    16    17    2
     9    16    18    2
    10    16     1    1
    11     1     2   ar
    12     2     3   ar
    13     3     4   ar
    14     4     5   ar
    15     5     6   ar
    16     6     7   ar
    17     7     8   ar
    18     8     9   ar
    19     7    10    1
    20    10    11    1
    21    11    12    1
    22    12    13    1
    23    13    14    1
    24    23    24   ar
    25    24    19   ar
    26     9     1   ar
    27     9     4   ar
    28    14     6    1
    29    12    15    1
@<TRIPOS>MOLECULE
*****
 26 29 0 0 0
SMALL
GASTEIGER

@<TRIPOS>ATOM
      1 N          61.6021   90.1323   11.4680 N.ar    1  UNL1       -0.2077
      2 C          60.2585   90.7775   11.6369 C.ar    1  UNL1        0.0999
      3 C          59.2787   90.0409   10.7722 C.ar    1  UNL1        0.0220
      4 C          60.0167   88.9407   10.0690 C.ar    1  UNL1        0.0187
      5 C          59.5668   87.8946    9.0926 C.ar    1  UNL1       -0.0030
      6 C          60.5528   86.9050    8.5462 C.ar    1  UNL1       -0.0246
      7 C          61.9887   86.9615    8.9762 C.ar    1  UNL1       -0.0232
      8 C          62.4387   88.0075    9.9525 C.ar    1  UNL1        0.0144
      9 C          61.4527   88.9971   10.4990 C.ar    1  UNL1        0.0822
     10 C          63.1260   86.0778    8.5569 C.3     1  UNL1        0.0431
     11 C          63.1081   84.9194    7.6040 C.3     1  UNL1        0.0733
     12 N          61.9487   84.3587    6.8353 N.3     1  UNL1       -0.2969
     13 C          60.5207   84.8177    6.8293 C.3     1  UNL1        0.0733
     14 C          59.8994   85.9509    7.5907 C.3     1  UNL1        0.0431
     15 H          61.9016   83.3807    7.1212 H       1  UNL1        0.1233
     16 S          62.8721   90.5492   12.1485 S.O2    1  UNL1        0.0861
     17 O          62.4678   89.7826   13.3727 O.2     1  UNL1       -0.1476
     18 O          63.2764   91.3159   10.9243 O.2     1  UNL1       -0.1476
     19 C          66.2134   92.5285   12.9657 C.ar    1  UNL1        0.1401
     20 C          66.6824   91.7998   14.1901 C.ar    1  UNL1        0.0370
     21 C          65.8812   90.6543   14.7339 C.ar    1  UNL1        0.0045
     22 C          64.6112   90.2374   14.0534 C.ar    1  UNL1        0.0206
     23 C          64.1422   90.9661   12.8290 C.ar    1  UNL1        0.1307
     24 C          64.9434   92.1116   12.2852 C.ar    1  UNL1        0.0573
     25 C          66.3602   94.6949   11.5390 C.3     1  UNL1        0.2525
     26 O          67.0147   93.6741   12.4219 O.3     1  UNL1       -0.4714
@<TRIPOS>BOND
     1    25    26    1
     2    26    19    1
     3    19    20   ar
     4    20    21   ar
     5    21    22   ar
     6    22    23   ar
     7    23    16    1
     8    16    17    2
     9    16    18    2
    10    16     1    1
    11     1     2   ar
    12     2     3   ar
    13     3     4   ar
    14     4     5   ar
    15     5     6   ar
    16     6     7   ar
    17     7     8   ar
    18     8     9   ar
    19     7    10    1
    20    10    11    1
    21    11    12    1
    22    12    13    1
    23    13    14    1
    24    23    24   ar
    25    24    19   ar
    26     9     1   ar
    27     9     4   ar
    28    14     6    1
    29    12    15    1
@<TRIPOS>MOLECULE
*****
 26 29 0 0 0
SMALL
GASTEIGER

@<TRIPOS>ATOM
      1 N          63.3650   87.5196   12.9942 N.ar    1  UNL1       -0.2077
      2 C          63.7080   86.1083   13.3692 C.ar    1  UNL1        0.0999
      3 C          63.0425   85.1925   12.3851 C.ar    1  UNL1        0.0220
      4 C          62.2883   86.0378   11.4020 C.ar    1  UNL1        0.0187
      5 C          61.4457   85.6837   10.2126 C.ar    1  UNL1       -0.0030
      6 C          60.8024   86.7679    9.3996 C.ar    1  UNL1       -0.0246
      7 C          61.0018   88.2060    9.7761 C.ar    1  UNL1       -0.0232
      8 C          61.8443   88.5602   10.9654 C.ar    1  UNL1        0.0144
      9 C          62.4876   87.4761   11.7784 C.ar    1  UNL1        0.0822
     10 C          60.4553   89.4324    9.1069 C.3     1  UNL1        0.0431
     11 C          59.5746   89.5232    7.8960 C.3     1  UNL1        0.0733
     12 N          59.0229   88.4103    7.0554 N.3     1  UNL1       -0.2969
     13 C          59.2154   86.9316    7.2178 C.3     1  UNL1        0.0733
     14 C          60.0074   86.2006    8.2611 C.3     1  UNL1        0.0431
     15 H          59.3602   88.6100    6.1137 H       1  UNL1        0.1233
     16 S          63.8197   88.7573   13.7094 S.O2    1  UNL1        0.0861
     17 O          63.7496   89.5262   12.4235 O.2     1  UNL1       -0.1476
     18 O          63.8898   87.9883   14.9954 O.2     1  UNL1       -0.1476
     19 C          65.7170   92.1546   14.4894 C.ar    1  UNL1        0.1401
     20 C          65.1836   92.4701   15.8555 C.ar    1  UNL1        0.0370
     21 C          64.1955   91.5479   16.5061 C.ar    1  UNL1        0.0045
     22 C          63.7409   90.3103   15.7908 C.ar    1  UNL1        0.0206
     23 C          64.2743   89.9948   14.4247 C.ar    1  UNL1        0.1307
     24 C          65.2624   90.9170   13.7741 C.ar    1  UNL1        0.0573
     25 C          66.4971   93.5193   12.4208 C.3     1  UNL1        0.2525
     26 O          66.7051   93.0768   13.8388 O.3     1  UNL1       -0.4714
@<TRIPOS>BOND
     1    25    26    1
     2    26    19    1
     3    19    20   ar
     4    20    21   ar
     5    21    22   ar
     6    22    23   ar
     7    23    16    1
     8    16    17    2
     9    16    18    2
    10    16     1    1
    11     1     2   ar
    12     2     3   ar
    13     3     4   ar
    14     4     5   ar
    15     5     6   ar
    16     6     7   ar
    17     7     8   ar
    18     8     9   ar
    19     7    10    1
    20    10    11    1
    21    11    12    1
    22    12    13    1
    23    13    14    1
    24    23    24   ar
    25    24    19   ar
    26     9     1   ar
    27     9     4   ar
    28    14     6    1
    29    12    15    1
@<TRIPOS>MOLECULE
*****
 26 29 0 0 0
SMALL
GASTEIGER

@<TRIPOS>ATOM
      1 N          63.0887   89.4251   11.6238 N.ar    1  UNL1       -0.2077
      2 C          62.0970   89.5495   10.5054 C.ar    1  UNL1        0.0999
      3 C          61.4677   88.2046   10.2923 C.ar    1  UNL1        0.0220
      4 C          62.0705   87.2492   11.2790 C.ar    1  UNL1        0.0187
      5 C          61.8365   85.7897   11.5344 C.ar    1  UNL1       -0.0030
      6 C          62.6045   85.0845   12.6129 C.ar    1  UNL1       -0.0246
      7 C          63.6063   85.8388   13.4358 C.ar    1  UNL1       -0.0232
      8 C          63.8403   87.2982   13.1804 C.ar    1  UNL1        0.0144
      9 C          63.0724   88.0035   12.1020 C.ar    1  UNL1        0.0822
     10 C          64.4721   85.3320   14.5511 C.3     1  UNL1        0.0431
     11 C          64.5497   83.9457   15.1187 C.3     1  UNL1        0.0733
     12 N          63.7808   82.7240   14.7114 N.3     1  UNL1       -0.2969
     13 C          62.7443   82.5866   13.6358 C.3     1  UNL1        0.0733
     14 C          62.2208   83.6371   12.7018 C.3     1  UNL1        0.0431
     15 H          63.3061   82.4250   15.5633 H       1  UNL1        0.1233
     16 S          63.9463   90.5287   12.1686 S.O2    1  UNL1        0.0861
     17 O          63.8576   89.9219   13.5375 O.2     1  UNL1       -0.1476
     18 O          64.0351   91.1354   10.7996 O.2     1  UNL1       -0.1476
     19 C          66.1464   92.6784   14.6762 C.ar    1  UNL1        0.1401
     20 C          66.5191   93.8394   13.8025 C.ar    1  UNL1        0.0370
     21 C          66.0342   93.8967   12.3843 C.ar    1  UNL1        0.0045
     22 C          65.1766   92.7932   11.8396 C.ar    1  UNL1        0.0206
     23 C          64.8039   91.6322   12.7133 C.ar    1  UNL1        0.1307
     24 C          65.2889   91.5749   14.1315 C.ar    1  UNL1        0.0573
     25 C          68.0758   92.3374   16.3824 C.3     1  UNL1        0.2525
     26 O          66.6314   92.6211   16.0945 O.3     1  UNL1       -0.4714
@<TRIPOS>BOND
     1    25    26    1
     2    26    19    1
     3    19    20   ar
     4    20    21   ar
     5    21    22   ar
     6    22    23   ar
     7    23    16    1
     8    16    17    2
     9    16    18    2
    10    16     1    1
    11     1     2   ar
    12     2     3   ar
    13     3     4   ar
    14     4     5   ar
    15     5     6   ar
    16     6     7   ar
    17     7     8   ar
    18     8     9   ar
    19     7    10    1
    20    10    11    1
    21    11    12    1
    22    12    13    1
    23    13    14    1
    24    23    24   ar
    25    24    19   ar
    26     9     1   ar
    27     9     4   ar
    28    14     6    1
    29    12    15    1
@<TRIPOS>MOLECULE
*****
 26 29 0 0 0
SMALL
GASTEIGER

@<TRIPOS>ATOM
      1 N          63.1454   85.5794   15.1987 N.ar    1  UNL1       -0.2077
      2 C          62.4861   85.1067   16.4604 C.ar    1  UNL1        0.0999
      3 C          62.4197   86.2653   17.4109 C.ar    1  UNL1        0.0220
      4 C          63.0380   87.4539   16.7366 C.ar    1  UNL1        0.0187
      5 C          63.2505   88.8676   17.1910 C.ar    1  UNL1       -0.0030
      6 C          63.9116   89.8574   16.2781 C.ar    1  UNL1       -0.0246
      7 C          64.3601   89.4336   14.9110 C.ar    1  UNL1       -0.0232
      8 C          64.1476   88.0200   14.4566 C.ar    1  UNL1        0.0144
      9 C          63.4865   87.0301   15.3694 C.ar    1  UNL1        0.0822
     10 C          65.0341   90.2542   13.8516 C.3     1  UNL1        0.0431
     11 C          65.4260   91.7015   13.8978 C.3     1  UNL1        0.0733
     12 N          65.2407   92.6853   15.0147 N.3     1  UNL1       -0.2969
     13 C          64.6178   92.4651   16.3613 C.3     1  UNL1        0.0733
     14 C          64.0262   91.2066   16.9236 C.3     1  UNL1        0.0431
     15 H          64.6950   93.4414   14.6012 H       1  UNL1        0.1233
     16 S          63.4162   84.7476   13.9802 S.O2    1  UNL1        0.0861
     17 O          62.0598   85.0944   13.4420 O.2     1  UNL1       -0.1476
     18 O          64.7727   84.4007   14.5185 O.2     1  UNL1       -0.1476
     19 C          63.6679   83.6354   10.1790 C.ar    1  UNL1        0.1401
     20 C          64.2288   82.2518   10.3249 C.ar    1  UNL1        0.0370
     21 C          64.5188   81.7003   11.6894 C.ar    1  UNL1        0.0045
     22 C          64.2479   82.5321   12.9078 C.ar    1  UNL1        0.0206
     23 C          63.6870   83.9157   12.7618 C.ar    1  UNL1        0.1307
     24 C          63.3971   84.4673   11.3974 C.ar    1  UNL1        0.0573
     25 C          62.8478   85.5823    8.6666 C.3     1  UNL1        0.2525
     26 O          63.3779   84.1870    8.8145 O.3     1  UNL1       -0.4714
@<TRIPOS>BOND
     1    25    26    1
     2    26    19    1
     3    19    20   ar
     4    20    21   ar
     5    21    22   ar
     6    22    23   ar
     7    23    16    1
     8    16    17    2
     9    16    18    2
    10    16     1    1
    11     1     2   ar
    12     2     3   ar
    13     3     4   ar
    14     4     5   ar
    15     5     6   ar
    16     6     7   ar
    17     7     8   ar
    18     8     9   ar
    19     7    10    1
    20    10    11    1
    21    11    12    1
    22    12    13    1
    23    13    14    1
    24    23    24   ar
    25    24    19   ar
    26     9     1   ar
    27     9     4   ar
    28    14     6    1
    29    12    15    1
