@<TRIPOS>MOLECULE
*****
 32 36 0 0 0
SMALL
GASTEIGER

@<TRIPOS>ATOM
      1 C          63.3008   86.3832   13.2480 C.ar    1  UNL1        0.2398
      2 N          63.9147   87.5821   13.9080 N.ar    1  UNL1       -0.1961
      3 C          63.7040   88.9486   13.3264 C.ar    1  UNL1        0.1361
      4 C          62.8794   89.1162   12.0846 C.ar    1  UNL1        0.0508
      5 C          62.2655   87.9173   11.4245 C.ar    1  UNL1        0.0845
      6 N          62.4762   86.5508   12.0061 N.ar    1  UNL1       -0.2137
      7 C          63.8882   84.7111   15.2490 C.ar    1  UNL1        0.2041
      8 N          63.9920   83.2214   15.3905 N.ar    1  UNL1       -0.2134
      9 C          63.6793   82.6063   14.0586 C.ar    1  UNL1        0.1003
     10 C          63.6267   81.1793   13.5996 C.ar    1  UNL1        0.0207
     11 C          63.2771   80.8618   12.1759 C.ar    1  UNL1        0.0016
     12 C          62.9802   81.9714   11.2112 C.ar    1  UNL1        0.0016
     13 C          63.0328   83.3984   11.6702 C.ar    1  UNL1        0.0192
     14 C          63.3824   83.7159   13.0939 C.ar    1  UNL1        0.0869
     15 N          63.5115   85.0167   13.8296 N.ar    1  UNL1       -0.2480
     16 C          62.9934   86.1177   17.2416 C.3     1  UNL1        0.1108
     17 N          64.1204   85.7183   16.3360 N.pl3   1  UNL1       -0.3023
     18 H          65.0126   86.1173   16.4550 H       1  UNL1        0.1497
     19 N          64.3179   90.1475   13.9865 N.pl3   1  UNL1       -0.2897
     20 C          65.2463   91.0363   13.2132 C.3     1  UNL1        0.1242
     21 C          65.8603   92.2351   13.8733 C.3     1  UNL1        0.1636
     22 O          65.5457   92.5453   15.3068 O.3     1  UNL1       -0.3502
     23 C          64.6173   91.6565   16.0801 C.3     1  UNL1        0.1618
     24 C          64.0034   90.4576   15.4200 C.3     1  UNL1        0.1038
     25 C          63.0749   89.5689   16.1934 C.3     1  UNL1        0.0241
     26 C          61.4409   88.0849   10.1828 C.3     1  UNL1        0.1457
     27 C          60.9070   87.8430    8.8020 C.3     1  UNL1        0.0297
     28 C          61.9916   86.9644    9.3513 C.3     1  UNL1        0.0297
     29 S          60.6038   89.2634   10.5830 S.O2    1  UNL1       -0.0065
     30 C          59.7666   90.4420   10.9832 C.3     1  UNL1        0.1764
     31 O          59.7155   88.3599   11.3858 O.2     1  UNL1       -0.1727
     32 O          61.4920   90.1670    9.7801 O.2     1  UNL1       -0.1727
@<TRIPOS>BOND
     1    16    17    1
     2    17     7    1
     3     7     8   ar
     4     8     9   ar
     5     9    10   ar
     6    10    11   ar
     7    11    12   ar
     8    12    13   ar
     9    13    14   ar
    10    14    15   ar
    11    15     1    1
    12     1     2   ar
    13     2     3   ar
    14     3    19    1
    15    19    20    1
    16    20    21    1
    17    21    22    1
    18    22    23    1
    19    23    24    1
    20    24    25    1
    21     3     4   ar
    22     4     5   ar
    23     5    26    1
    24    26    29    1
    25    29    30    1
    26    29    31    2
    27    29    32    2
    28    26    27    1
    29    27    28    1
    30     5     6   ar
    31    15     7   ar
    32     6     1   ar
    33    14     9   ar
    34    24    19    1
    35    28    26    1
    36    17    18    1
@<TRIPOS>MOLECULE
*****
 32 36 0 0 0
SMALL
GASTEIGER

@<TRIPOS>ATOM
      1 C          62.9188   86.0924   12.7729 C.ar    1  UNL1        0.2398
      2 N          62.1093   85.9404   11.5194 N.ar    1  UNL1       -0.1961
      3 C          61.7956   87.1424   10.6788 C.ar    1  UNL1        0.1361
      4 C          62.2913   88.4966   11.0918 C.ar    1  UNL1        0.0508
      5 C          63.1008   88.6486   12.3454 C.ar    1  UNL1        0.0845
      6 N          63.4146   87.4466   13.1860 N.ar    1  UNL1       -0.2137
      7 C          63.6649   84.9074   15.0498 C.ar    1  UNL1        0.2041
      8 N          63.8686   83.4878   15.4893 N.ar    1  UNL1       -0.2134
      9 C          63.5622   82.5934   14.3248 C.ar    1  UNL1        0.1003
     10 C          63.5904   81.1017   14.1702 C.ar    1  UNL1        0.0207
     11 C          63.2254   80.4768   12.8564 C.ar    1  UNL1        0.0016
     12 C          62.8323   81.3437   11.6970 C.ar    1  UNL1        0.0016
     13 C          62.8041   82.8354   11.8516 C.ar    1  UNL1        0.0192
     14 C          63.1691   83.4602   13.1655 C.ar    1  UNL1        0.0869
     15 N          63.2326   84.8903   13.6136 N.ar    1  UNL1       -0.2480
     16 C          63.0326   86.3239   17.1339 C.3     1  UNL1        0.1108
     17 N          63.8594   86.1294   15.8976 N.pl3   1  UNL1       -0.3023
     18 H          64.5297   86.8039   15.6426 H       1  UNL1        0.1497
     19 N          60.9861   86.9904    9.4251 N.pl3   1  UNL1       -0.2897
     20 C          59.7059   87.7548    9.2616 C.3     1  UNL1        0.1242
     21 C          58.8964   87.6027    8.0080 C.3     1  UNL1        0.1636
     22 O          59.3671   86.6862    6.9178 O.3     1  UNL1       -0.3502
     23 C          60.6472   85.9218    7.0814 C.3     1  UNL1        0.1618
     24 C          61.4567   86.0739    8.3350 C.3     1  UNL1        0.1038
     25 C          62.7369   85.3094    8.4984 C.3     1  UNL1        0.0241
     26 C          63.5965   90.0027   12.7584 C.3     1  UNL1        0.1457
     27 C          64.1051   91.4100   12.6534 C.3     1  UNL1        0.0297
     28 C          63.8055   90.6261   11.4102 C.3     1  UNL1        0.0297
     29 S          63.5598   89.8497   14.2501 S.O2    1  UNL1       -0.0065
     30 C          63.5232   89.6967   15.7418 C.3     1  UNL1        0.1764
     31 O          65.0590   89.8133   14.2833 O.2     1  UNL1       -0.1727
     32 O          62.0606   89.8861   14.2170 O.2     1  UNL1       -0.1727
@<TRIPOS>BOND
     1    16    17    1
     2    17     7    1
     3     7     8   ar
     4     8     9   ar
     5     9    10   ar
     6    10    11   ar
     7    11    12   ar
     8    12    13   ar
     9    13    14   ar
    10    14    15   ar
    11    15     1    1
    12     1     2   ar
    13     2     3   ar
    14     3    19    1
    15    19    20    1
    16    20    21    1
    17    21    22    1
    18    22    23    1
    19    23    24    1
    20    24    25    1
    21     3     4   ar
    22     4     5   ar
    23     5    26    1
    24    26    29    1
    25    29    30    1
    26    29    31    2
    27    29    32    2
    28    26    27    1
    29    27    28    1
    30     5     6   ar
    31    15     7   ar
    32     6     1   ar
    33    14     9   ar
    34    24    19    1
    35    28    26    1
    36    17    18    1
@<TRIPOS>MOLECULE
*****
 32 36 0 0 0
SMALL
GASTEIGER

@<TRIPOS>ATOM
      1 C          62.3733   87.2746   11.7452 C.ar    1  UNL1        0.2398
      2 N          62.9015   88.5991   12.2103 N.ar    1  UNL1       -0.1961
      3 C          63.7578   88.6754   13.4395 C.ar    1  UNL1        0.1361
      4 C          64.0860   87.4271   14.2036 C.ar    1  UNL1        0.0508
      5 C          63.5578   86.1024   13.7386 C.ar    1  UNL1        0.0845
      6 N          62.7015   86.0261   12.5094 N.ar    1  UNL1       -0.2137
      7 C          60.2497   87.9639   10.2755 C.ar    1  UNL1        0.2041
      8 N          59.7271   87.5817    8.9224 N.ar    1  UNL1       -0.2134
      9 C          60.6714   86.5799    8.3267 C.ar    1  UNL1        0.1003
     10 C          60.6669   85.8529    7.0147 C.ar    1  UNL1        0.0207
     11 C          61.7686   84.8890    6.6877 C.ar    1  UNL1        0.0016
     12 C          62.8748   84.6520    7.6726 C.ar    1  UNL1        0.0016
     13 C          62.8793   85.3790    8.9846 C.ar    1  UNL1        0.0192
     14 C          61.7776   86.3430    9.3117 C.ar    1  UNL1        0.0869
     15 N          61.5170   87.1983   10.5161 N.ar    1  UNL1       -0.2480
     16 C          59.8977   90.4072   11.0855 C.3     1  UNL1        0.1108
     17 N          59.6162   88.9402   11.2218 N.pl3   1  UNL1       -0.3023
     18 H          59.0158   88.6181   11.9324 H       1  UNL1        0.1497
     19 N          64.2860   90.0001   13.9046 N.pl3   1  UNL1       -0.2897
     20 C          65.0552   90.8746   12.9593 C.3     1  UNL1        0.1242
     21 C          65.5834   92.1992   13.4244 C.3     1  UNL1        0.1636
     22 O          65.3424   92.6495   14.8348 O.3     1  UNL1       -0.3502
     23 C          64.5732   91.7750   15.7801 C.3     1  UNL1        0.1618
     24 C          64.0450   90.4503   15.3150 C.3     1  UNL1        0.1038
     25 C          63.2758   89.5759   16.2603 C.3     1  UNL1        0.0241
     26 C          63.8859   84.8540   14.5026 C.3     1  UNL1        0.1457
     27 C          64.4488   83.4989   14.8139 C.3     1  UNL1        0.0297
     28 C          64.6757   84.1133   13.4645 C.3     1  UNL1        0.0297
     29 S          63.2101   85.1611   15.8060 S.O2    1  UNL1       -0.0065
     30 C          62.5343   85.4681   17.1094 C.3     1  UNL1        0.1764
     31 O          61.8974   84.7206   15.2292 O.2     1  UNL1       -0.1727
     32 O          64.5228   85.6016   16.3829 O.2     1  UNL1       -0.1727
@<TRIPOS>BOND
     1    16    17    1
     2    17     7    1
     3     7     8   ar
     4     8     9   ar
     5     9    10   ar
     6    10    11   ar
     7    11    12   ar
     8    12    13   ar
     9    13    14   ar
    10    14    15   ar
    11    15     1    1
    12     1     2   ar
    13     2     3   ar
    14     3    19    1
    15    19    20    1
    16    20    21    1
    17    21    22    1
    18    22    23    1
    19    23    24    1
    20    24    25    1
    21     3     4   ar
    22     4     5   ar
    23     5    26    1
    24    26    29    1
    25    29    30    1
    26    29    31    2
    27    29    32    2
    28    26    27    1
    29    27    28    1
    30     5     6   ar
    31    15     7   ar
    32     6     1   ar
    33    14     9   ar
    34    24    19    1
    35    28    26    1
    36    17    18    1
@<TRIPOS>MOLECULE
*****
 32 36 0 0 0
SMALL
GASTEIGER

@<TRIPOS>ATOM
      1 C          62.3677   87.2454   11.7862 C.ar    1  UNL1        0.2398
      2 N          62.8572   88.5575   12.3235 N.ar    1  UNL1       -0.1961
      3 C          63.7498   88.5884   13.5286 C.ar    1  UNL1        0.1361
      4 C          64.1529   87.3073   14.1965 C.ar    1  UNL1        0.0508
      5 C          63.6634   85.9951   13.6592 C.ar    1  UNL1        0.0845
      6 N          62.7709   85.9642   12.4541 N.ar    1  UNL1       -0.2137
      7 C          60.2107   88.0008   10.4000 C.ar    1  UNL1        0.2041
      8 N          59.6444   87.6640    9.0524 N.ar    1  UNL1       -0.2134
      9 C          60.5589   86.6695    8.4007 C.ar    1  UNL1        0.1003
     10 C          60.5075   85.9811    7.0690 C.ar    1  UNL1        0.0207
     11 C          61.5876   85.0148    6.6821 C.ar    1  UNL1        0.0016
     12 C          62.7190   84.7370    7.6269 C.ar    1  UNL1        0.0016
     13 C          62.7704   85.4254    8.9586 C.ar    1  UNL1        0.0192
     14 C          61.6904   86.3917    9.3454 C.ar    1  UNL1        0.0869
     15 N          61.4752   87.2145   10.5810 N.ar    1  UNL1       -0.2480
     16 C          59.7577   90.4352   11.1862 C.3     1  UNL1        0.1108
     17 N          59.6168   88.9562   11.3922 N.pl3   1  UNL1       -0.3023
     18 H          59.1345   88.6125   12.1786 H       1  UNL1        0.1497
     19 N          64.2392   89.9006   14.0659 N.pl3   1  UNL1       -0.2897
     20 C          65.0371   90.8195   13.1890 C.3     1  UNL1        0.1242
     21 C          65.5265   92.1316   13.7263 C.3     1  UNL1        0.1636
     22 O          65.2181   92.5249   15.1406 O.3     1  UNL1       -0.3502
     23 C          64.4203   91.6061   16.0175 C.3     1  UNL1        0.1618
     24 C          63.9309   90.2939   15.4802 C.3     1  UNL1        0.1038
     25 C          63.1330   89.3751   16.3572 C.3     1  UNL1        0.0241
     26 C          64.0665   84.7139   14.3270 C.3     1  UNL1        0.1457
     27 C          64.6964   83.7763   15.3140 C.3     1  UNL1        0.0297
     28 C          64.8596   85.2584   15.4779 C.3     1  UNL1        0.0297
     29 S          63.4134   83.7245   13.4081 S.O2    1  UNL1       -0.0065
     30 C          62.7604   82.7350   12.4892 C.3     1  UNL1        0.1764
     31 O          64.6324   83.7316   12.5340 O.2     1  UNL1       -0.1727
     32 O          62.1944   83.7173   14.2822 O.2     1  UNL1       -0.1727
@<TRIPOS>BOND
     1    16    17    1
     2    17     7    1
     3     7     8   ar
     4     8     9   ar
     5     9    10   ar
     6    10    11   ar
     7    11    12   ar
     8    12    13   ar
     9    13    14   ar
    10    14    15   ar
    11    15     1    1
    12     1     2   ar
    13     2     3   ar
    14     3    19    1
    15    19    20    1
    16    20    21    1
    17    21    22    1
    18    22    23    1
    19    23    24    1
    20    24    25    1
    21     3     4   ar
    22     4     5   ar
    23     5    26    1
    24    26    29    1
    25    29    30    1
    26    29    31    2
    27    29    32    2
    28    26    27    1
    29    27    28    1
    30     5     6   ar
    31    15     7   ar
    32     6     1   ar
    33    14     9   ar
    34    24    19    1
    35    28    26    1
    36    17    18    1
@<TRIPOS>MOLECULE
*****
 32 36 0 0 0
SMALL
GASTEIGER

@<TRIPOS>ATOM
      1 C          63.0954   88.0684   12.5334 C.ar    1  UNL1        0.2398
      2 N          63.3518   86.6411   12.9166 N.ar    1  UNL1       -0.1961
      3 C          62.6305   85.5330   12.2081 C.ar    1  UNL1        0.1361
      4 C          61.6529   85.8523   11.1162 C.ar    1  UNL1        0.0508
      5 C          61.3964   87.2797   10.7329 C.ar    1  UNL1        0.0845
      6 N          62.1177   88.3877   11.4415 N.ar    1  UNL1       -0.2137
      7 C          64.1678   89.2091   14.6999 C.ar    1  UNL1        0.2041
      8 N          64.8815   90.4992   14.9760 N.ar    1  UNL1       -0.2134
      9 C          64.9715   91.2638   13.6886 C.ar    1  UNL1        0.1003
     10 C          65.5677   92.5989   13.3538 C.ar    1  UNL1        0.0207
     11 C          65.5057   93.1164   11.9473 C.ar    1  UNL1        0.0016
     12 C          64.8476   92.2989   10.8756 C.ar    1  UNL1        0.0016
     13 C          64.2514   90.9638   11.2104 C.ar    1  UNL1        0.0192
     14 C          64.3134   90.4463   12.6169 C.ar    1  UNL1        0.0869
     15 N          63.8167   89.1764   13.2420 N.ar    1  UNL1       -0.2480
     16 C          63.0776   88.4745   16.9409 C.3     1  UNL1        0.1108
     17 N          63.8593   88.1395   15.7053 N.pl3   1  UNL1       -0.3023
     18 H          64.1700   87.2176   15.5542 H       1  UNL1        0.1497
     19 N          62.8870   84.1057   12.5914 N.pl3   1  UNL1       -0.2897
     20 C          62.5242   83.6208   13.9637 C.3     1  UNL1        0.1242
     21 C          62.7806   82.1935   14.3470 C.3     1  UNL1        0.1636
     22 O          63.3998   81.2509   13.3579 O.3     1  UNL1       -0.3502
     23 C          63.7626   81.7358   11.9856 C.3     1  UNL1        0.1618
     24 C          63.5062   83.1632   11.6023 C.3     1  UNL1        0.1038
     25 C          63.8690   83.6480   10.2300 C.3     1  UNL1        0.0241
     26 C          60.4188   87.5991    9.6411 C.3     1  UNL1        0.1457
     27 C          59.5704   87.4318    8.4154 C.3     1  UNL1        0.0297
     28 C          60.4513   86.3088    8.8767 C.3     1  UNL1        0.0297
     29 S          60.0467   89.0002   10.0262 S.O2    1  UNL1       -0.0065
     30 C          59.6746   90.4013   10.4112 C.3     1  UNL1        0.1764
     31 O          60.8149   89.5273    8.8506 O.2     1  UNL1       -0.1727
     32 O          59.2785   88.4731   11.2018 O.2     1  UNL1       -0.1727
@<TRIPOS>BOND
     1    16    17    1
     2    17     7    1
     3     7     8   ar
     4     8     9   ar
     5     9    10   ar
     6    10    11   ar
     7    11    12   ar
     8    12    13   ar
     9    13    14   ar
    10    14    15   ar
    11    15     1    1
    12     1     2   ar
    13     2     3   ar
    14     3    19    1
    15    19    20    1
    16    20    21    1
    17    21    22    1
    18    22    23    1
    19    23    24    1
    20    24    25    1
    21     3     4   ar
    22     4     5   ar
    23     5    26    1
    24    26    29    1
    25    29    30    1
    26    29    31    2
    27    29    32    2
    28    26    27    1
    29    27    28    1
    30     5     6   ar
    31    15     7   ar
    32     6     1   ar
    33    14     9   ar
    34    24    19    1
    35    28    26    1
    36    17    18    1
@<TRIPOS>MOLECULE
*****
 32 36 0 0 0
SMALL
GASTEIGER

@<TRIPOS>ATOM
      1 C          63.2326   88.2268   12.5536 C.ar    1  UNL1        0.2398
      2 N          62.3397   88.4578   11.3708 N.ar    1  UNL1       -0.1961
      3 C          61.6766   87.2954   10.6931 C.ar    1  UNL1        0.1361
      4 C          61.9065   85.9019   11.1984 C.ar    1  UNL1        0.0508
      5 C          62.7995   85.6708   12.3812 C.ar    1  UNL1        0.0845
      6 N          63.4626   86.8332   13.0589 N.ar    1  UNL1       -0.2137
      7 C          64.1828   89.5077   14.6987 C.ar    1  UNL1        0.2041
      8 N          64.8526   90.8289   14.9347 N.ar    1  UNL1       -0.2134
      9 C          64.9794   91.5270   13.6131 C.ar    1  UNL1        0.1003
     10 C          65.5570   92.8579   13.2323 C.ar    1  UNL1        0.0207
     11 C          65.5432   93.2990   11.7987 C.ar    1  UNL1        0.0016
     12 C          64.9518   92.4092   10.7459 C.ar    1  UNL1        0.0016
     13 C          64.3742   91.0783   11.1267 C.ar    1  UNL1        0.0192
     14 C          64.3880   90.6372   12.5602 C.ar    1  UNL1        0.0869
     15 N          63.8957   89.3892   13.2312 N.ar    1  UNL1       -0.2480
     16 C          63.0353   88.8693   16.9405 C.3     1  UNL1        0.1108
     17 N          63.8573   88.4846   15.7462 N.pl3   1  UNL1       -0.3023
     18 H          64.1832   87.5606   15.6499 H       1  UNL1        0.1497
     19 N          60.7836   87.5264    9.5103 N.pl3   1  UNL1       -0.2897
     20 C          60.2271   86.3586    8.7511 C.3     1  UNL1        0.1242
     21 C          59.3341   86.5897    7.5683 C.3     1  UNL1        0.1636
     22 O          58.9976   87.9887    7.1445 O.3     1  UNL1       -0.3502
     23 C          59.5542   89.1565    7.9037 C.3     1  UNL1        0.1618
     24 C          60.4472   88.9254    9.0865 C.3     1  UNL1        0.1038
     25 C          61.0036   90.0934    9.8456 C.3     1  UNL1        0.0241
     26 C          63.0295   84.2773   12.8865 C.3     1  UNL1        0.1457
     27 C          63.1361   82.7811   12.8962 C.3     1  UNL1        0.0297
     28 C          62.7540   83.4977   11.6351 C.3     1  UNL1        0.0297
     29 S          63.3849   84.5730   14.3135 S.O2    1  UNL1       -0.0065
     30 C          63.7403   84.8686   15.7405 C.3     1  UNL1        0.1764
     31 O          64.8417   84.4642   13.9733 O.2     1  UNL1       -0.1727
     32 O          61.9280   84.6818   14.6538 O.2     1  UNL1       -0.1727
@<TRIPOS>BOND
     1    16    17    1
     2    17     7    1
     3     7     8   ar
     4     8     9   ar
     5     9    10   ar
     6    10    11   ar
     7    11    12   ar
     8    12    13   ar
     9    13    14   ar
    10    14    15   ar
    11    15     1    1
    12     1     2   ar
    13     2     3   ar
    14     3    19    1
    15    19    20    1
    16    20    21    1
    17    21    22    1
    18    22    23    1
    19    23    24    1
    20    24    25    1
    21     3     4   ar
    22     4     5   ar
    23     5    26    1
    24    26    29    1
    25    29    30    1
    26    29    31    2
    27    29    32    2
    28    26    27    1
    29    27    28    1
    30     5     6   ar
    31    15     7   ar
    32     6     1   ar
    33    14     9   ar
    34    24    19    1
    35    28    26    1
    36    17    18    1
@<TRIPOS>MOLECULE
*****
 32 36 0 0 0
SMALL
GASTEIGER

@<TRIPOS>ATOM
      1 C          62.8361   85.4829   12.4010 C.ar    1  UNL1        0.2398
      2 N          62.4593   85.0943   11.0022 N.ar    1  UNL1       -0.1961
      3 C          62.1815   86.1545    9.9781 C.ar    1  UNL1        0.1361
      4 C          62.2806   87.6035   10.3530 C.ar    1  UNL1        0.0508
      5 C          62.6575   87.9923   11.7518 C.ar    1  UNL1        0.0845
      6 N          62.9352   86.9320   12.7759 N.ar    1  UNL1       -0.2137
      7 C          63.5391   84.6574   14.8443 C.ar    1  UNL1        0.2041
      8 N          63.7031   83.3213   15.5060 N.ar    1  UNL1       -0.2134
      9 C          63.3792   82.2608   14.4958 C.ar    1  UNL1        0.1003
     10 C          63.3689   80.7633   14.5809 C.ar    1  UNL1        0.0207
     11 C          62.9944   79.9464   13.3799 C.ar    1  UNL1        0.0016
     12 C          62.6301   80.6271   12.0938 C.ar    1  UNL1        0.0016
     13 C          62.6405   82.1246   12.0087 C.ar    1  UNL1        0.0192
     14 C          63.0150   82.9415   13.2097 C.ar    1  UNL1        0.0869
     15 N          63.1138   84.4226   13.4251 N.ar    1  UNL1       -0.2480
     16 C          63.2075   86.2687   16.8551 C.3     1  UNL1        0.1108
     17 N          63.7613   85.9936   15.4886 N.pl3   1  UNL1       -0.3023
     18 H          64.2706   86.6901   15.0145 H       1  UNL1        0.1497
     19 N          61.8047   85.7658    8.5793 N.pl3   1  UNL1       -0.2897
     20 C          62.7654   84.9838    7.7335 C.3     1  UNL1        0.1242
     21 C          62.3886   84.5951    6.3346 C.3     1  UNL1        0.1636
     22 O          61.0509   84.9883    5.7815 O.3     1  UNL1       -0.3502
     23 C          60.0901   85.7703    6.6273 C.3     1  UNL1        0.1618
     24 C          60.4670   86.1590    8.0261 C.3     1  UNL1        0.1038
     25 C          59.5061   86.9410    8.8719 C.3     1  UNL1        0.0241
     26 C          62.7566   89.4413   12.1267 C.3     1  UNL1        0.1457
     27 C          63.2664   90.7015   12.7609 C.3     1  UNL1        0.0297
     28 C          63.9731   89.4008   13.0034 C.3     1  UNL1        0.0297
     29 S          61.5747   89.9850   11.3803 S.O2    1  UNL1       -0.0065
     30 C          60.3927   90.5287   10.6338 C.3     1  UNL1        0.1764
     31 O          62.4875   90.4899   10.3025 O.2     1  UNL1       -0.1727
     32 O          60.6617   89.4800   12.4581 O.2     1  UNL1       -0.1727
@<TRIPOS>BOND
     1    16    17    1
     2    17     7    1
     3     7     8   ar
     4     8     9   ar
     5     9    10   ar
     6    10    11   ar
     7    11    12   ar
     8    12    13   ar
     9    13    14   ar
    10    14    15   ar
    11    15     1    1
    12     1     2   ar
    13     2     3   ar
    14     3    19    1
    15    19    20    1
    16    20    21    1
    17    21    22    1
    18    22    23    1
    19    23    24    1
    20    24    25    1
    21     3     4   ar
    22     4     5   ar
    23     5    26    1
    24    26    29    1
    25    29    30    1
    26    29    31    2
    27    29    32    2
    28    26    27    1
    29    27    28    1
    30     5     6   ar
    31    15     7   ar
    32     6     1   ar
    33    14     9   ar
    34    24    19    1
    35    28    26    1
    36    17    18    1
