@<TRIPOS>MOLECULE
*****
 34 38 0 0 0
SMALL
GASTEIGER

@<TRIPOS>ATOM
      1 C          62.9079   86.5102   12.4032 C.2     1  UNL1        0.2528
      2 O          63.4917   87.4288   13.4353 O.2     1  UNL1       -0.2698
      3 N          61.9334   87.0397   11.3933 N.am    1  UNL1       -0.2722
      4 C          61.3496   86.1211   10.3611 C.3     1  UNL1        0.1257
      5 C          60.3750   86.6506    9.3512 C.3     1  UNL1        0.1637
      6 O          59.9843   88.0986    9.3734 O.3     1  UNL1       -0.3502
      7 C          60.5682   89.0172   10.4056 C.3     1  UNL1        0.1622
      8 C          61.5427   88.4878   11.4155 C.3     1  UNL1        0.1097
      9 C          64.2802   82.2598    9.7478 C.3     1  UNL1        0.0334
     10 C          63.9848   82.9369   11.0533 C.ar    1  UNL1        0.0059
     11 C          64.0801   82.1661   12.3365 C.ar    1  UNL1       -0.0004
     12 C          63.7846   82.8432   13.6419 C.ar    1  UNL1        0.0209
     13 C          63.3939   84.2912   13.6642 C.ar    1  UNL1        0.1094
     14 C          63.2986   85.0621   12.3810 C.ar    1  UNL1        0.1000
     15 C          63.5941   84.3850   11.0755 C.ar    1  UNL1        0.1420
     16 F          63.4987   85.1559    9.7923 F       1  UNL1       -0.2043
     17 N          63.0985   84.9684   14.9696 N.ar    1  UNL1       -0.1476
     18 N          61.7706   84.9987   15.6665 N.ar    1  UNL1       -0.1447
     19 C          61.9305   85.7832   16.9350 C.ar    1  UNL1        0.1446
     20 C          63.3573   86.2377   17.0221 C.ar    1  UNL1        0.1446
     21 N          64.0792   85.7341   15.8075 N.ar    1  UNL1       -0.1447
     22 C          62.1265   89.4063   12.4476 C.3     1  UNL1        0.0510
     23 C          63.1890   90.3915   12.0598 C.ar    1  UNL1        0.0086
     24 C          64.2024   90.8386   13.0713 C.ar    1  UNL1        0.0189
     25 C          65.2650   91.8238   12.6835 C.ar    1  UNL1        0.1027
     26 C          65.3142   92.3619   11.2842 C.ar    1  UNL1        0.0232
     27 C          64.3007   91.9148   10.2727 C.ar    1  UNL1        0.0309
     28 C          63.2382   90.9296   10.6605 C.ar    1  UNL1        0.1363
     29 F          62.2248   90.4826    9.6491 F       1  UNL1       -0.2045
     30 N          66.2784   92.2708   13.6950 N.ar    1  UNL1       -0.1478
     31 N          67.7673   92.2655   13.5131 N.ar    1  UNL1       -0.1447
     32 C          68.3900   92.7931   14.7716 C.ar    1  UNL1        0.1446
     33 C          67.2858   93.1245   15.7315 C.ar    1  UNL1        0.1446
     34 N          65.9809   92.8016   15.0660 N.ar    1  UNL1       -0.1447
@<TRIPOS>BOND
     1     9    10    1
     2    10    11   ar
     3    11    12   ar
     4    12    13   ar
     5    13    17    1
     6    17    18   ar
     7    18    19   ar
     8    19    20   ar
     9    20    21   ar
    10    13    14   ar
    11    14     1    1
    12     1     2    2
    13     1     3   am
    14     3     4    1
    15     4     5    1
    16     5     6    1
    17     6     7    1
    18     7     8    1
    19     8    22    1
    20    22    23    1
    21    23    24   ar
    22    24    25   ar
    23    25    30    1
    24    30    31   ar
    25    31    32   ar
    26    32    33   ar
    27    33    34   ar
    28    25    26   ar
    29    26    27   ar
    30    27    28   ar
    31    28    29    1
    32    14    15   ar
    33    15    16    1
    34    15    10   ar
    35    21    17   ar
    36     8     3    1
    37    28    23   ar
    38    34    30   ar
@<TRIPOS>MOLECULE
*****
 34 38 0 0 0
SMALL
GASTEIGER

@<TRIPOS>ATOM
      1 C          62.8078   87.2875   11.9650 C.2     1  UNL1        0.2528
      2 O          63.5460   87.4159   13.2644 O.2     1  UNL1       -0.2698
      3 N          61.9755   88.4283   11.4593 N.am    1  UNL1       -0.2722
      4 C          61.2372   88.2999   10.1599 C.3     1  UNL1        0.1257
      5 C          60.4049   89.4408    9.6542 C.3     1  UNL1        0.1637
      6 O          60.3109   90.7100   10.4480 O.3     1  UNL1       -0.3502
      7 C          61.0491   90.8385   11.7474 C.3     1  UNL1        0.1622
      8 C          61.8814   89.6976   12.2531 C.3     1  UNL1        0.1097
      9 C          62.8767   84.8411    7.3812 C.3     1  UNL1        0.0334
     10 C          62.9363   84.7950    8.8793 C.ar    1  UNL1        0.0059
     11 C          63.0899   83.4796    9.5837 C.ar    1  UNL1       -0.0004
     12 C          63.1495   83.4335   11.0818 C.ar    1  UNL1        0.0209
     13 C          63.0555   84.7027   11.8755 C.ar    1  UNL1        0.1094
     14 C          62.9018   86.0181   11.1712 C.ar    1  UNL1        0.1000
     15 C          62.8422   86.0642    9.6731 C.ar    1  UNL1        0.1420
     16 F          62.6886   87.3797    8.9688 F       1  UNL1       -0.2043
     17 N          63.1151   84.6566   13.3737 N.ar    1  UNL1       -0.1476
     18 N          64.3624   84.6062   14.2053 N.ar    1  UNL1       -0.1447
     19 C          63.9561   84.5712   15.6488 C.ar    1  UNL1        0.1446
     20 C          62.4576   84.6001   15.7093 C.ar    1  UNL1        0.1446
     21 N          61.9378   84.6528   14.3032 N.ar    1  UNL1       -0.1447
     22 C          62.6197   89.8261   13.5525 C.3     1  UNL1        0.0510
     23 C          63.7984   90.7477   13.6575 C.ar    1  UNL1        0.0086
     24 C          64.3467   91.4072   12.4269 C.ar    1  UNL1        0.0189
     25 C          65.5255   92.3289   12.5318 C.ar    1  UNL1        0.1027
     26 C          66.1560   92.5910   13.8674 C.ar    1  UNL1        0.0232
     27 C          65.6077   91.9314   15.0980 C.ar    1  UNL1        0.0309
     28 C          64.4290   91.0098   14.9930 C.ar    1  UNL1        0.1363
     29 F          63.8807   90.3502   16.2236 F       1  UNL1       -0.2045
     30 N          66.0737   92.9884   11.3012 N.ar    1  UNL1       -0.1478
     31 N          67.1533   92.4420   10.4147 N.ar    1  UNL1       -0.1447
     32 C          67.3855   93.4261    9.3066 C.ar    1  UNL1        0.1446
     33 C          66.4494   94.5807    9.5083 C.ar    1  UNL1        0.1446
     34 N          65.6387   94.3102   10.7411 N.ar    1  UNL1       -0.1447
@<TRIPOS>BOND
     1     9    10    1
     2    10    11   ar
     3    11    12   ar
     4    12    13   ar
     5    13    17    1
     6    17    18   ar
     7    18    19   ar
     8    19    20   ar
     9    20    21   ar
    10    13    14   ar
    11    14     1    1
    12     1     2    2
    13     1     3   am
    14     3     4    1
    15     4     5    1
    16     5     6    1
    17     6     7    1
    18     7     8    1
    19     8    22    1
    20    22    23    1
    21    23    24   ar
    22    24    25   ar
    23    25    30    1
    24    30    31   ar
    25    31    32   ar
    26    32    33   ar
    27    33    34   ar
    28    25    26   ar
    29    26    27   ar
    30    27    28   ar
    31    28    29    1
    32    14    15   ar
    33    15    16    1
    34    15    10   ar
    35    21    17   ar
    36     8     3    1
    37    28    23   ar
    38    34    30   ar
@<TRIPOS>MOLECULE
*****
 34 38 0 0 0
SMALL
GASTEIGER

@<TRIPOS>ATOM
      1 C          63.4847   88.3082   13.0575 C.2     1  UNL1        0.2528
      2 O          63.6715   89.1616   11.8381 O.2     1  UNL1       -0.2698
      3 N          63.4192   88.9434   14.4147 N.am    1  UNL1       -0.2722
      4 C          63.2324   88.0900   15.6340 C.3     1  UNL1        0.1257
      5 C          63.1669   88.7254   16.9913 C.3     1  UNL1        0.1637
      6 O          63.2881   90.2141   17.1291 O.3     1  UNL1       -0.3502
      7 C          63.4749   91.0675   15.9098 C.3     1  UNL1        0.1622
      8 C          63.5404   90.4322   14.5526 C.3     1  UNL1        0.1097
      9 C          64.8896   83.5242   14.5203 C.3     1  UNL1        0.0334
     10 C          64.0659   84.4274   13.6510 C.ar    1  UNL1        0.0059
     11 C          63.1211   83.8420   12.6438 C.ar    1  UNL1       -0.0004
     12 C          62.2974   84.7453   11.7745 C.ar    1  UNL1        0.0209
     13 C          62.4186   86.2339   11.9123 C.ar    1  UNL1        0.1094
     14 C          63.3635   86.8194   12.9195 C.ar    1  UNL1        0.1000
     15 C          64.1871   85.9161   13.7889 C.ar    1  UNL1        0.1420
     16 F          65.1320   86.5016   14.7961 F       1  UNL1       -0.2043
     17 N          61.5950   87.1372   11.0430 N.ar    1  UNL1       -0.1476
     18 N          60.3932   87.9231   11.4768 N.ar    1  UNL1       -0.1447
     19 C          59.8840   88.6848   10.2892 C.ar    1  UNL1        0.1446
     20 C          60.7710   88.3696    9.1213 C.ar    1  UNL1        0.1446
     21 N          61.8284   87.4132    9.5872 N.ar    1  UNL1       -0.1447
     22 C          63.7272   91.2856   13.3332 C.3     1  UNL1        0.0510
     23 C          65.0855   91.8253   12.9964 C.ar    1  UNL1        0.0086
     24 C          65.2410   92.8301   11.8936 C.ar    1  UNL1        0.0189
     25 C          66.5994   93.3698   11.5567 C.ar    1  UNL1        0.1027
     26 C          67.8023   92.9047   12.3226 C.ar    1  UNL1        0.0232
     27 C          67.6468   91.8999   13.4255 C.ar    1  UNL1        0.0309
     28 C          66.2885   91.3602   13.7623 C.ar    1  UNL1        0.1363
     29 F          66.1330   90.3554   14.8651 F       1  UNL1       -0.2045
     30 N          66.7549   94.3746   10.4539 N.ar    1  UNL1       -0.1478
     31 N          67.9022   94.4566    9.4912 N.ar    1  UNL1       -0.1447
     32 C          67.6467   95.6065    8.5625 C.ar    1  UNL1        0.1446
     33 C          66.3415   96.2352    8.9513 C.ar    1  UNL1        0.1446
     34 N          65.7903   95.4738   10.1202 N.ar    1  UNL1       -0.1447
@<TRIPOS>BOND
     1     9    10    1
     2    10    11   ar
     3    11    12   ar
     4    12    13   ar
     5    13    17    1
     6    17    18   ar
     7    18    19   ar
     8    19    20   ar
     9    20    21   ar
    10    13    14   ar
    11    14     1    1
    12     1     2    2
    13     1     3   am
    14     3     4    1
    15     4     5    1
    16     5     6    1
    17     6     7    1
    18     7     8    1
    19     8    22    1
    20    22    23    1
    21    23    24   ar
    22    24    25   ar
    23    25    30    1
    24    30    31   ar
    25    31    32   ar
    26    32    33   ar
    27    33    34   ar
    28    25    26   ar
    29    26    27   ar
    30    27    28   ar
    31    28    29    1
    32    14    15   ar
    33    15    16    1
    34    15    10   ar
    35    21    17   ar
    36     8     3    1
    37    28    23   ar
    38    34    30   ar
@<TRIPOS>MOLECULE
*****
 34 38 0 0 0
SMALL
GASTEIGER

@<TRIPOS>ATOM
      1 C          62.2687   84.8966   12.3238 C.2     1  UNL1        0.2528
      2 O          61.4716   85.9816   12.9852 O.2     1  UNL1       -0.2698
      3 N          62.5958   84.9905   10.8629 N.am    1  UNL1       -0.2722
      4 C          63.3928   83.9055   10.2015 C.3     1  UNL1        0.1257
      5 C          63.7199   83.9995    8.7406 C.3     1  UNL1        0.1637
      6 O          63.2500   85.1784    7.9411 O.3     1  UNL1       -0.3502
      7 C          62.4529   86.2635    8.6025 C.3     1  UNL1        0.1622
      8 C          62.1258   86.1695   10.0634 C.3     1  UNL1        0.1097
      9 C          62.7169   79.7543   12.9200 C.3     1  UNL1        0.0334
     10 C          62.9627   81.1465   13.4214 C.ar    1  UNL1        0.0059
     11 C          63.6784   81.3597   14.7222 C.ar    1  UNL1       -0.0004
     12 C          63.9242   82.7519   15.2236 C.ar    1  UNL1        0.0209
     13 C          63.4543   83.9308   14.4242 C.ar    1  UNL1        0.1094
     14 C          62.7386   83.7176   13.1233 C.ar    1  UNL1        0.1000
     15 C          62.4928   82.3254   12.6219 C.ar    1  UNL1        0.1420
     16 F          61.7770   82.1122   11.3210 F       1  UNL1       -0.2043
     17 N          63.7001   85.3230   14.9255 N.ar    1  UNL1       -0.1476
     18 N          63.0687   85.9495   16.1333 N.ar    1  UNL1       -0.1447
     19 C          63.5988   87.3469   16.2614 C.ar    1  UNL1        0.1446
     20 C          64.5580   87.5840   15.1328 C.ar    1  UNL1        0.1446
     21 N          64.6206   86.3332   14.3072 N.ar    1  UNL1       -0.1447
     22 C          61.3288   87.2546   10.7248 C.3     1  UNL1        0.0510
     23 C          61.8982   88.6372   10.8437 C.ar    1  UNL1        0.0086
     24 C          62.6552   89.0330   12.0766 C.ar    1  UNL1        0.0189
     25 C          63.2246   90.4157   12.1956 C.ar    1  UNL1        0.1027
     26 C          63.0369   91.4024   11.0815 C.ar    1  UNL1        0.0232
     27 C          62.2798   91.0066    9.8486 C.ar    1  UNL1        0.0309
     28 C          61.7104   89.6240    9.7297 C.ar    1  UNL1        0.1363
     29 F          60.9534   89.2281    8.4968 F       1  UNL1       -0.2045
     30 N          63.9817   90.8115   13.4285 N.ar    1  UNL1       -0.1478
     31 N          63.4257   90.8822   14.8198 N.ar    1  UNL1       -0.1447
     32 C          64.5281   91.3205   15.7378 C.ar    1  UNL1        0.1446
     33 C          65.7654   91.5206   14.9138 C.ar    1  UNL1        0.1446
     34 N          65.4277   91.2060   13.4865 N.ar    1  UNL1       -0.1447
@<TRIPOS>BOND
     1     9    10    1
     2    10    11   ar
     3    11    12   ar
     4    12    13   ar
     5    13    17    1
     6    17    18   ar
     7    18    19   ar
     8    19    20   ar
     9    20    21   ar
    10    13    14   ar
    11    14     1    1
    12     1     2    2
    13     1     3   am
    14     3     4    1
    15     4     5    1
    16     5     6    1
    17     6     7    1
    18     7     8    1
    19     8    22    1
    20    22    23    1
    21    23    24   ar
    22    24    25   ar
    23    25    30    1
    24    30    31   ar
    25    31    32   ar
    26    32    33   ar
    27    33    34   ar
    28    25    26   ar
    29    26    27   ar
    30    27    28   ar
    31    28    29    1
    32    14    15   ar
    33    15    16    1
    34    15    10   ar
    35    21    17   ar
    36     8     3    1
    37    28    23   ar
    38    34    30   ar
@<TRIPOS>MOLECULE
*****
 34 38 0 0 0
SMALL
GASTEIGER

@<TRIPOS>ATOM
      1 C          63.7216   86.6366   13.5869 C.2     1  UNL1        0.2528
      2 O          64.6971   87.0658   14.6424 O.2     1  UNL1       -0.2698
      3 N          63.1637   87.6448   12.6267 N.am    1  UNL1       -0.2722
      4 C          62.1882   87.2155   11.5711 C.3     1  UNL1        0.1257
      5 C          61.6302   88.2239   10.6109 C.3     1  UNL1        0.1637
      6 O          62.0477   89.6614   10.7062 O.3     1  UNL1       -0.3502
      7 C          63.0232   90.0907   11.7617 C.3     1  UNL1        0.1622
      8 C          63.5812   89.0824   12.7219 C.3     1  UNL1        0.1097
      9 C          63.1866   82.2810   10.8042 C.3     1  UNL1        0.0334
     10 C          63.0366   83.0212   12.1002 C.ar    1  UNL1        0.0059
     11 C          62.4692   82.3238   13.3009 C.ar    1  UNL1       -0.0004
     12 C          62.3192   83.0640   14.5969 C.ar    1  UNL1        0.0209
     13 C          62.7367   84.5016   14.6922 C.ar    1  UNL1        0.1094
     14 C          63.3041   85.1989   13.4916 C.ar    1  UNL1        0.1000
     15 C          63.4541   84.4587   12.1956 C.ar    1  UNL1        0.1420
     16 F          64.0216   85.1562   10.9949 F       1  UNL1       -0.2043
     17 N          62.5867   85.2418   15.9882 N.ar    1  UNL1       -0.1476
     18 N          63.6754   85.5000   16.9872 N.ar    1  UNL1       -0.1447
     19 C          63.0833   86.2715   18.1292 C.ar    1  UNL1        0.1446
     20 C          61.6286   86.4902   17.8360 C.ar    1  UNL1        0.1446
     21 N          61.3217   85.8537   16.5128 N.ar    1  UNL1       -0.1447
     22 C          64.5567   89.5117   13.7775 C.3     1  UNL1        0.0510
     23 C          65.1955   90.8667   13.7018 C.ar    1  UNL1        0.0086
     24 C          65.7862   91.3462   12.4091 C.ar    1  UNL1        0.0189
     25 C          66.4251   92.7013   12.3334 C.ar    1  UNL1        0.1027
     26 C          66.4733   93.5768   13.5504 C.ar    1  UNL1        0.0232
     27 C          65.8825   93.0972   14.8431 C.ar    1  UNL1        0.0309
     28 C          65.2437   91.7422   14.9188 C.ar    1  UNL1        0.1363
     29 F          64.6530   91.2628   16.2115 F       1  UNL1       -0.2045
     30 N          67.0158   93.1808   11.0407 N.ar    1  UNL1       -0.1478
     31 N          67.0532   94.6018   10.5618 N.ar    1  UNL1       -0.1447
     32 C          67.7333   94.6227    9.2250 C.ar    1  UNL1        0.1446
     33 C          68.1163   93.2146    8.8777 C.ar    1  UNL1        0.1446
     34 N          67.6728   92.3235    9.9998 N.ar    1  UNL1       -0.1447
@<TRIPOS>BOND
     1     9    10    1
     2    10    11   ar
     3    11    12   ar
     4    12    13   ar
     5    13    17    1
     6    17    18   ar
     7    18    19   ar
     8    19    20   ar
     9    20    21   ar
    10    13    14   ar
    11    14     1    1
    12     1     2    2
    13     1     3   am
    14     3     4    1
    15     4     5    1
    16     5     6    1
    17     6     7    1
    18     7     8    1
    19     8    22    1
    20    22    23    1
    21    23    24   ar
    22    24    25   ar
    23    25    30    1
    24    30    31   ar
    25    31    32   ar
    26    32    33   ar
    27    33    34   ar
    28    25    26   ar
    29    26    27   ar
    30    27    28   ar
    31    28    29    1
    32    14    15   ar
    33    15    16    1
    34    15    10   ar
    35    21    17   ar
    36     8     3    1
    37    28    23   ar
    38    34    30   ar
@<TRIPOS>MOLECULE
*****
 34 38 0 0 0
SMALL
GASTEIGER

@<TRIPOS>ATOM
      1 C          63.3157   87.7609   12.8930 C.2     1  UNL1        0.2528
      2 O          63.3387   88.5146   11.5963 O.2     1  UNL1       -0.2698
      3 N          63.2877   88.5073   14.1938 N.am    1  UNL1       -0.2722
      4 C          63.2647   87.7536   15.4906 C.3     1  UNL1        0.1257
      5 C          63.2368   88.5001   16.7914 C.3     1  UNL1        0.1637
      6 O          63.2319   90.0000   16.7955 O.3     1  UNL1       -0.3502
      7 C          63.2550   90.7536   15.4988 C.3     1  UNL1        0.1622
      8 C          63.2829   90.0073   14.1979 C.3     1  UNL1        0.1097
      9 C          65.1019   83.2615   14.7810 C.3     1  UNL1        0.0334
     10 C          64.2136   84.0112   13.8329 C.ar    1  UNL1        0.0059
     11 C          63.3303   83.2610   12.8807 C.ar    1  UNL1       -0.0004
     12 C          62.4420   84.0107   11.9326 C.ar    1  UNL1        0.0209
     13 C          62.4371   85.5107   11.9367 C.ar    1  UNL1        0.1094
     14 C          63.3205   86.2609   12.8889 C.ar    1  UNL1        0.1000
     15 C          64.2088   85.5112   13.8370 C.ar    1  UNL1        0.1420
     16 F          65.0922   86.2615   14.7893 F       1  UNL1       -0.2043
     17 N          61.5489   86.2604   10.9885 N.ar    1  UNL1       -0.1476
     18 N          60.5347   87.2993   11.3653 N.ar    1  UNL1       -0.1447
     19 C          59.8778   87.7838   10.1068 C.ar    1  UNL1        0.1446
     20 C          60.4862   87.0444    8.9522 C.ar    1  UNL1        0.1446
     21 N          61.5189   86.1028    9.4971 N.ar    1  UNL1       -0.1447
     22 C          63.3059   90.7609   12.9012 C.3     1  UNL1        0.0510
     23 C          64.5181   91.5569   12.5178 C.ar    1  UNL1        0.0086
     24 C          65.5568   91.8852   13.5490 C.ar    1  UNL1        0.0189
     25 C          66.7690   92.6811   13.1656 C.ar    1  UNL1        0.1027
     26 C          66.9426   93.1488   11.7509 C.ar    1  UNL1        0.0232
     27 C          65.9038   92.8204   10.7197 C.ar    1  UNL1        0.0309
     28 C          64.6917   92.0245   11.1031 C.ar    1  UNL1        0.1363
     29 F          63.6530   91.6962   10.0719 F       1  UNL1       -0.2045
     30 N          67.8076   93.0094   14.1968 N.ar    1  UNL1       -0.1478
     31 N          69.2194   92.5030   14.2185 N.ar    1  UNL1       -0.1447
     32 C          69.9012   93.0823   15.4225 C.ar    1  UNL1        0.1446
     33 C          68.9108   93.9469   16.1448 C.ar    1  UNL1        0.1446
     34 N          67.6169   93.9018   15.3873 N.ar    1  UNL1       -0.1447
@<TRIPOS>BOND
     1     9    10    1
     2    10    11   ar
     3    11    12   ar
     4    12    13   ar
     5    13    17    1
     6    17    18   ar
     7    18    19   ar
     8    19    20   ar
     9    20    21   ar
    10    13    14   ar
    11    14     1    1
    12     1     2    2
    13     1     3   am
    14     3     4    1
    15     4     5    1
    16     5     6    1
    17     6     7    1
    18     7     8    1
    19     8    22    1
    20    22    23    1
    21    23    24   ar
    22    24    25   ar
    23    25    30    1
    24    30    31   ar
    25    31    32   ar
    26    32    33   ar
    27    33    34   ar
    28    25    26   ar
    29    26    27   ar
    30    27    28   ar
    31    28    29    1
    32    14    15   ar
    33    15    16    1
    34    15    10   ar
    35    21    17   ar
    36     8     3    1
    37    28    23   ar
    38    34    30   ar
@<TRIPOS>MOLECULE
*****
 34 38 0 0 0
SMALL
GASTEIGER

@<TRIPOS>ATOM
      1 C          61.4946   94.0597   -1.2896 C.2     1  UNL1        0.2528
      2 O          61.4575   92.7354   -1.9930 O.2     1  UNL1       -0.2698
      3 N          60.2182   94.7955   -1.0083 N.am    1  UNL1       -0.2722
      4 C          60.2553   96.1198   -0.3048 C.3     1  UNL1        0.1257
      5 C          58.9787   96.8557   -0.0235 C.3     1  UNL1        0.1637
      6 O          57.6652   96.2673   -0.4457 O.3     1  UNL1       -0.3502
      7 C          57.6281   94.9430   -1.1492 C.3     1  UNL1        0.1622
      8 C          58.9045   94.2071   -1.4305 C.3     1  UNL1        0.1097
      9 C          64.9084   95.2270    2.4498 C.3     1  UNL1        0.0334
     10 C          64.5151   95.2317    1.0023 C.ar    1  UNL1        0.0059
     11 C          65.4354   95.8248   -0.0230 C.ar    1  UNL1       -0.0004
     12 C          65.0421   95.8296   -1.4705 C.ar    1  UNL1        0.0209
     13 C          63.7285   95.2412   -1.8927 C.ar    1  UNL1        0.1094
     14 C          62.8082   94.6481   -0.8674 C.ar    1  UNL1        0.1000
     15 C          63.2016   94.6433    0.5801 C.ar    1  UNL1        0.1420
     16 F          62.2812   94.0502    1.6055 F       1  UNL1       -0.2043
     17 N          63.3352   95.2460   -3.3402 N.ar    1  UNL1       -0.1476
     18 N          63.5151   94.1128   -4.3065 N.ar    1  UNL1       -0.1447
     19 C          62.9840   94.5512   -5.6391 C.ar    1  UNL1        0.1446
     20 C          62.4758   95.9553   -5.4964 C.ar    1  UNL1        0.1446
     21 N          62.6929   96.3846   -4.0756 N.ar    1  UNL1       -0.1447
     22 C          58.8674   92.8828   -2.1339 C.3     1  UNL1        0.0510
     23 C          58.2144   92.7663   -3.4793 C.ar    1  UNL1        0.0086
     24 C          57.0999   91.7846   -3.6895 C.ar    1  UNL1        0.0189
     25 C          56.4469   91.6680   -5.0349 C.ar    1  UNL1        0.1027
     26 C          56.9085   92.5331   -6.1701 C.ar    1  UNL1        0.0232
     27 C          58.0231   93.5148   -5.9598 C.ar    1  UNL1        0.0309
     28 C          58.6760   93.6313   -4.6145 C.ar    1  UNL1        0.1363
     29 F          59.7905   94.6129   -4.4043 F       1  UNL1       -0.2045
     30 N          55.3324   90.6864   -5.2451 N.ar    1  UNL1       -0.1478
     31 N          54.5264   90.5229   -6.4995 N.ar    1  UNL1       -0.1447
     32 C          53.5241   89.4314   -6.2675 C.ar    1  UNL1        0.1446
     33 C          53.7105   88.9203   -4.8696 C.ar    1  UNL1        0.1446
     34 N          54.8282   89.6960   -4.2377 N.ar    1  UNL1       -0.1447
@<TRIPOS>BOND
     1     9    10    1
     2    10    11   ar
     3    11    12   ar
     4    12    13   ar
     5    13    17    1
     6    17    18   ar
     7    18    19   ar
     8    19    20   ar
     9    20    21   ar
    10    13    14   ar
    11    14     1    1
    12     1     2    2
    13     1     3   am
    14     3     4    1
    15     4     5    1
    16     5     6    1
    17     6     7    1
    18     7     8    1
    19     8    22    1
    20    22    23    1
    21    23    24   ar
    22    24    25   ar
    23    25    30    1
    24    30    31   ar
    25    31    32   ar
    26    32    33   ar
    27    33    34   ar
    28    25    26   ar
    29    26    27   ar
    30    27    28   ar
    31    28    29    1
    32    14    15   ar
    33    15    16    1
    34    15    10   ar
    35    21    17   ar
    36     8     3    1
    37    28    23   ar
    38    34    30   ar
@<TRIPOS>MOLECULE
*****
 34 38 0 0 0
SMALL
GASTEIGER

@<TRIPOS>ATOM
      1 C          61.1466   93.8326   -0.6866 C.2     1  UNL1        0.2528
      2 O          61.1132   92.4798   -1.3338 O.2     1  UNL1       -0.2698
      3 N          59.9016   94.6673   -0.6287 N.am    1  UNL1       -0.2722
      4 C          59.9350   96.0200    0.0186 C.3     1  UNL1        0.1257
      5 C          58.6900   96.8547    0.0764 C.3     1  UNL1        0.1637
      6 O          57.4117   96.3366   -0.5130 O.3     1  UNL1       -0.3502
      7 C          57.3783   94.9839   -1.1602 C.3     1  UNL1        0.1622
      8 C          58.6232   94.1492   -1.2181 C.3     1  UNL1        0.1097
      9 C          65.6598   96.3486   -1.2347 C.3     1  UNL1        0.0334
     10 C          64.6816   95.6086   -0.3712 C.ar    1  UNL1        0.0059
     11 C          64.9817   95.3868    1.0816 C.ar    1  UNL1       -0.0004
     12 C          64.0035   94.6468    1.9450 C.ar    1  UNL1        0.0209
     13 C          62.7251   94.1288    1.3557 C.ar    1  UNL1        0.1094
     14 C          62.4250   94.3507   -0.0971 C.ar    1  UNL1        0.1000
     15 C          63.4032   95.0906   -0.9606 C.ar    1  UNL1        0.1420
     16 F          63.1031   95.3125   -2.4134 F       1  UNL1       -0.2043
     17 N          61.7469   93.3888    2.2191 N.ar    1  UNL1       -0.1476
     18 N          60.3382   93.8102    2.5159 N.ar    1  UNL1       -0.1447
     19 C          59.7262   92.7794    3.4176 C.ar    1  UNL1        0.1446
     20 C          60.7567   91.7210    3.6781 C.ar    1  UNL1        0.1446
     21 N          62.0055   92.0977    2.9374 N.ar    1  UNL1       -0.1447
     22 C          58.5898   92.7965   -1.8654 C.3     1  UNL1        0.0510
     23 C          58.0835   92.6492   -3.2696 C.ar    1  UNL1        0.0086
     24 C          56.9618   91.6986   -3.5665 C.ar    1  UNL1        0.0189
     25 C          56.4554   91.5514   -4.9708 C.ar    1  UNL1        0.1027
     26 C          57.0707   92.3547   -6.0781 C.ar    1  UNL1        0.0232
     27 C          58.1924   93.3053   -5.7811 C.ar    1  UNL1        0.0309
     28 C          58.6988   93.4525   -4.3769 C.ar    1  UNL1        0.1363
     29 F          59.8205   94.4031   -4.0799 F       1  UNL1       -0.2045
     30 N          55.3337   90.6008   -5.2678 N.ar    1  UNL1       -0.1478
     31 N          54.6137   90.4682   -6.5769 N.ar    1  UNL1       -0.1447
     32 C          53.5701   89.4013   -6.4260 C.ar    1  UNL1        0.1446
     33 C          53.6451   88.8746   -5.0234 C.ar    1  UNL1        0.1446
     34 N          54.7351   89.6159   -4.3077 N.ar    1  UNL1       -0.1447
@<TRIPOS>BOND
     1     9    10    1
     2    10    11   ar
     3    11    12   ar
     4    12    13   ar
     5    13    17    1
     6    17    18   ar
     7    18    19   ar
     8    19    20   ar
     9    20    21   ar
    10    13    14   ar
    11    14     1    1
    12     1     2    2
    13     1     3   am
    14     3     4    1
    15     4     5    1
    16     5     6    1
    17     6     7    1
    18     7     8    1
    19     8    22    1
    20    22    23    1
    21    23    24   ar
    22    24    25   ar
    23    25    30    1
    24    30    31   ar
    25    31    32   ar
    26    32    33   ar
    27    33    34   ar
    28    25    26   ar
    29    26    27   ar
    30    27    28   ar
    31    28    29    1
    32    14    15   ar
    33    15    16    1
    34    15    10   ar
    35    21    17   ar
    36     8     3    1
    37    28    23   ar
    38    34    30   ar
@<TRIPOS>MOLECULE
*****
 34 38 0 0 0
SMALL
GASTEIGER

@<TRIPOS>ATOM
      1 C          61.9418   88.5571   10.2082 C.2     1  UNL1        0.2528
      2 O          63.4153   88.6670    9.9496 O.2     1  UNL1       -0.2698
      3 N          61.3829   88.9541   11.5423 N.am    1  UNL1       -0.2722
      4 C          59.9095   88.8442   11.8010 C.3     1  UNL1        0.1257
      5 C          59.3505   89.2413   13.1352 C.3     1  UNL1        0.1637
      6 O          60.2650   89.7483   14.2106 O.3     1  UNL1       -0.3502
      7 C          61.7384   89.8583   13.9520 C.3     1  UNL1        0.1622
      8 C          62.2974   89.4612   12.6179 C.3     1  UNL1        0.1097
      9 C          58.3526   89.4561    6.5601 C.3     1  UNL1        0.0334
     10 C          59.2327   88.4996    7.3087 C.ar    1  UNL1        0.0059
     11 C          59.1984   87.0361    6.9818 C.ar    1  UNL1       -0.0004
     12 C          60.0786   86.0795    7.7304 C.ar    1  UNL1        0.0209
     13 C          60.9930   86.5865    8.8058 C.ar    1  UNL1        0.1094
     14 C          61.0273   88.0500    9.1327 C.ar    1  UNL1        0.1000
     15 C          60.1472   89.0065    8.3841 C.ar    1  UNL1        0.1420
     16 F          60.1815   90.4701    8.7111 F       1  UNL1       -0.2043
     17 N          61.8732   85.6300    9.5544 N.ar    1  UNL1       -0.1476
     18 N          61.7312   85.2460   10.9975 N.ar    1  UNL1       -0.1447
     19 C          62.8201   84.2682   11.3263 C.ar    1  UNL1        0.1446
     20 C          63.6351   84.0478   10.0865 C.ar    1  UNL1        0.1446
     21 N          63.0499   84.8895    8.9914 N.ar    1  UNL1       -0.1447
     22 C          63.7708   89.5711   12.3592 C.3     1  UNL1        0.0510
     23 C          64.5430   90.7361   12.9038 C.ar    1  UNL1        0.0086
     24 C          64.9166   91.8754   12.0025 C.ar    1  UNL1        0.0189
     25 C          65.6888   93.0404   12.5470 C.ar    1  UNL1        0.1027
     26 C          66.0874   93.0660   13.9929 C.ar    1  UNL1        0.0232
     27 C          65.7138   91.9267   14.8942 C.ar    1  UNL1        0.0309
     28 C          64.9416   90.7617   14.3496 C.ar    1  UNL1        0.1363
     29 F          64.5680   89.6224   15.2509 F       1  UNL1       -0.2045
     30 N          66.0625   94.1797   11.6457 N.ar    1  UNL1       -0.1478
     31 N          66.4961   94.0659   10.2143 N.ar    1  UNL1       -0.1447
     32 C          66.7697   95.4487    9.7015 C.ar    1  UNL1        0.1446
     33 C          66.5051   96.4172   10.8160 C.ar    1  UNL1        0.1446
     34 N          66.0680   95.6329   12.0176 N.ar    1  UNL1       -0.1447
@<TRIPOS>BOND
     1     9    10    1
     2    10    11   ar
     3    11    12   ar
     4    12    13   ar
     5    13    17    1
     6    17    18   ar
     7    18    19   ar
     8    19    20   ar
     9    20    21   ar
    10    13    14   ar
    11    14     1    1
    12     1     2    2
    13     1     3   am
    14     3     4    1
    15     4     5    1
    16     5     6    1
    17     6     7    1
    18     7     8    1
    19     8    22    1
    20    22    23    1
    21    23    24   ar
    22    24    25   ar
    23    25    30    1
    24    30    31   ar
    25    31    32   ar
    26    32    33   ar
    27    33    34   ar
    28    25    26   ar
    29    26    27   ar
    30    27    28   ar
    31    28    29    1
    32    14    15   ar
    33    15    16    1
    34    15    10   ar
    35    21    17   ar
    36     8     3    1
    37    28    23   ar
    38    34    30   ar
