@<TRIPOS>MOLECULE
*****
 23 24 0 0 0
SMALL
GASTEIGER

@<TRIPOS>ATOM
      1 C          63.2331   90.1735   12.2070 C.3     1  UNL1        0.1172
      2 C          64.2894   91.2316   12.0851 C.ar    1  UNL1        0.0080
      3 C          64.4019   92.0374   10.8250 C.ar    1  UNL1       -0.0018
      4 C          65.4582   93.0954   10.7032 C.ar    1  UNL1       -0.0003
      5 C          66.4018   93.3476   11.8415 C.ar    1  UNL1        0.0047
      6 C          66.2893   92.5419   13.1017 C.ar    1  UNL1        0.0817
      7 C          65.2330   91.4838   13.2235 C.ar    1  UNL1        0.0592
      8 CL         65.1204   90.6780   14.4837 Cl      1  UNL1       -0.0826
      9 C          67.2330   92.7941   14.2400 C.3     1  UNL1        0.4194
     10 F          68.1767   93.0463   15.3784 F       1  UNL1       -0.1658
     11 F          66.3605   93.9183   14.7142 F       1  UNL1       -0.1658
     12 F          68.1055   91.6699   13.7658 F       1  UNL1       -0.1658
     13 C          61.2291   89.0929   10.9553 C.2     1  UNL1        0.2408
     14 O          60.3692   89.2808   12.1699 O.2     1  UNL1       -0.2733
     15 N          62.6611   89.5392   10.9739 N.am    1  UNL1       -0.2991
     16 H          63.2255   89.4159   10.1767 H       1  UNL1        0.1498
     17 C          61.3949   85.9292   10.1724 C.3     1  UNL1        0.1153
     18 N          60.7333   87.0044    9.3624 N.am    1  UNL1       -0.2712
     19 C          60.0318   86.8142    8.0502 C.2     1  UNL1        0.2261
     20 O          59.8687   85.5154    7.3178 O.2     1  UNL1       -0.2749
     21 C          59.5221   88.1509    7.5992 C.3     1  UNL1        0.0875
     22 C          59.9086   89.1672    8.6325 C.3     1  UNL1        0.0388
     23 C          60.6571   88.4586    9.7223 C.3     1  UNL1        0.1523
@<TRIPOS>BOND
     1    17    18    1
     2    18    19   am
     3    19    20    2
     4    19    21    1
     5    21    22    1
     6    22    23    1
     7    23    13    1
     8    13    14    2
     9    13    15   am
    10    15     1    1
    11     1     2    1
    12     2     3   ar
    13     3     4   ar
    14     4     5   ar
    15     5     6   ar
    16     6     9    1
    17     9    10    1
    18     9    11    1
    19     9    12    1
    20     6     7   ar
    21     7     8    1
    22    23    18    1
    23     7     2   ar
    24    15    16    1
@<TRIPOS>MOLECULE
*****
 23 24 0 0 0
SMALL
GASTEIGER

@<TRIPOS>ATOM
      1 C          62.0166   87.8087   11.5554 C.3     1  UNL1        0.1172
      2 C          62.4014   86.6090   10.7414 C.ar    1  UNL1        0.0080
      3 C          62.3671   86.6767    9.2433 C.ar    1  UNL1       -0.0018
      4 C          62.7519   85.4770    8.4293 C.ar    1  UNL1       -0.0003
      5 C          63.1710   84.2096    9.1134 C.ar    1  UNL1        0.0047
      6 C          63.2053   84.1418   10.6115 C.ar    1  UNL1        0.0817
      7 C          62.8205   85.3416   11.4254 C.ar    1  UNL1        0.0592
      8 CL         62.8548   85.2739   12.9236 Cl      1  UNL1       -0.0826
      9 C          63.6244   82.8744   11.2955 C.3     1  UNL1        0.4194
     10 F          64.0435   81.6070   11.9796 F       1  UNL1       -0.1658
     11 F          65.0641   83.2239   11.0610 F       1  UNL1       -0.1658
     12 F          62.1847   82.5249   11.5301 F       1  UNL1       -0.1658
     13 C          63.0897   90.0900   12.1835 C.2     1  UNL1        0.2408
     14 O          62.0552   90.8024   11.3636 O.2     1  UNL1       -0.2733
     15 N          63.0704   88.5932   12.2795 N.am    1  UNL1       -0.2991
     16 H          63.7494   88.1256   12.8176 H       1  UNL1        0.1498
     17 C          64.9951   92.3984   10.8834 C.3     1  UNL1        0.1153
     18 N          65.0193   91.9355   12.3100 N.am    1  UNL1       -0.2712
     19 C          65.9235   92.4523   13.3894 C.2     1  UNL1        0.2261
     20 O          66.9623   93.5228   13.2318 O.2     1  UNL1       -0.2749
     21 C          65.6065   91.7107   14.6542 C.3     1  UNL1        0.0875
     22 C          64.5064   90.7355   14.3563 C.3     1  UNL1        0.0388
     23 C          64.1434   90.8744   12.9076 C.3     1  UNL1        0.1523
@<TRIPOS>BOND
     1    17    18    1
     2    18    19   am
     3    19    20    2
     4    19    21    1
     5    21    22    1
     6    22    23    1
     7    23    13    1
     8    13    14    2
     9    13    15   am
    10    15     1    1
    11     1     2    1
    12     2     3   ar
    13     3     4   ar
    14     4     5   ar
    15     5     6   ar
    16     6     9    1
    17     9    10    1
    18     9    11    1
    19     9    12    1
    20     6     7   ar
    21     7     8    1
    22    23    18    1
    23     7     2   ar
    24    15    16    1
@<TRIPOS>MOLECULE
*****
 23 24 0 0 0
SMALL
GASTEIGER

@<TRIPOS>ATOM
      1 C          63.1820   90.4270   13.2917 C.3     1  UNL1        0.1172
      2 C          64.5309   91.0808   13.2360 C.ar    1  UNL1        0.0080
      3 C          65.4585   90.9879   14.4111 C.ar    1  UNL1       -0.0018
      4 C          66.8073   91.6416   14.3553 C.ar    1  UNL1       -0.0003
      5 C          67.2286   92.3883   13.1244 C.ar    1  UNL1        0.0047
      6 C          66.3011   92.4811   11.9493 C.ar    1  UNL1        0.0817
      7 C          64.9522   91.8274   12.0051 C.ar    1  UNL1        0.0592
      8 CL         64.0246   91.9203   10.8299 Cl      1  UNL1       -0.0826
      9 C          66.7224   93.2277   10.7184 C.3     1  UNL1        0.4194
     10 F          67.1437   93.9744    9.4876 F       1  UNL1       -0.1658
     11 F          67.3521   91.9789   10.1765 F       1  UNL1       -0.1658
     12 F          66.0926   94.4766   11.2604 F       1  UNL1       -0.1658
     13 C          61.8001   89.1650   11.4896 C.2     1  UNL1        0.2408
     14 O          60.9498   90.3842   11.2877 O.2     1  UNL1       -0.2733
     15 N          62.9161   89.1864   12.4916 N.am    1  UNL1       -0.2991
     16 H          63.4742   88.3863   12.6241 H       1  UNL1        0.1498
     17 C          60.1294   89.0089    8.6906 C.3     1  UNL1        0.1153
     18 N          60.7663   87.8526    9.4029 N.am    1  UNL1       -0.2712
     19 C          60.7472   86.4216    8.9537 C.2     1  UNL1        0.2261
     20 O          60.0877   85.8956    7.7134 O.2     1  UNL1       -0.2749
     21 C          61.5032   85.6089    9.9627 C.3     1  UNL1        0.0875
     22 C          61.9897   86.5377   11.0354 C.3     1  UNL1        0.0388
     23 C          61.5342   87.9244   10.6895 C.3     1  UNL1        0.1523
@<TRIPOS>BOND
     1    17    18    1
     2    18    19   am
     3    19    20    2
     4    19    21    1
     5    21    22    1
     6    22    23    1
     7    23    13    1
     8    13    14    2
     9    13    15   am
    10    15     1    1
    11     1     2    1
    12     2     3   ar
    13     3     4   ar
    14     4     5   ar
    15     5     6   ar
    16     6     9    1
    17     9    10    1
    18     9    11    1
    19     9    12    1
    20     6     7   ar
    21     7     8    1
    22    23    18    1
    23     7     2   ar
    24    15    16    1
@<TRIPOS>MOLECULE
*****
 23 24 0 0 0
SMALL
GASTEIGER

@<TRIPOS>ATOM
      1 C          61.1177   90.0401   11.0348 C.3     1  UNL1        0.1172
      2 C          60.9883   88.8815   10.0907 C.ar    1  UNL1        0.0080
      3 C          60.0065   88.9428    8.9584 C.ar    1  UNL1       -0.0018
      4 C          59.8772   87.7843    8.0144 C.ar    1  UNL1       -0.0003
      5 C          60.7296   86.5645    8.2028 C.ar    1  UNL1        0.0047
      6 C          61.7114   86.5032    9.3352 C.ar    1  UNL1        0.0817
      7 C          61.8407   87.6617   10.2792 C.ar    1  UNL1        0.0592
      8 CL         62.8225   87.6005   11.4116 Cl      1  UNL1       -0.0826
      9 C          62.5638   85.2835    9.5237 C.3     1  UNL1        0.4194
     10 F          63.4163   84.0637    9.7121 F       1  UNL1       -0.1658
     11 F          63.3858   85.6737    8.3311 F       1  UNL1       -0.1658
     12 F          61.7419   84.8933   10.7162 F       1  UNL1       -0.1658
     13 C          63.2321   90.8458   12.3115 C.2     1  UNL1        0.2408
     14 O          62.8084   90.0540   13.5129 O.2     1  UNL1       -0.2733
     15 N          62.3867   90.8388   11.0723 N.am    1  UNL1       -0.2991
     16 H          62.6648   91.3585   10.2838 H       1  UNL1        0.1498
     17 C          65.1416   91.2914   14.9201 C.3     1  UNL1        0.1153
     18 N          65.3789   91.8494   13.5481 N.am    1  UNL1       -0.2712
     19 C          66.5355   92.7101   13.1343 C.2     1  UNL1        0.2261
     20 O          67.6579   93.1640   14.0198 O.2     1  UNL1       -0.2749
     21 C          66.3727   93.0372   11.6795 C.3     1  UNL1        0.0875
     22 C          65.1154   92.3786   11.1942 C.3     1  UNL1        0.0388
     23 C          64.5012   91.6445   12.3490 C.3     1  UNL1        0.1523
@<TRIPOS>BOND
     1    17    18    1
     2    18    19   am
     3    19    20    2
     4    19    21    1
     5    21    22    1
     6    22    23    1
     7    23    13    1
     8    13    14    2
     9    13    15   am
    10    15     1    1
    11     1     2    1
    12     2     3   ar
    13     3     4   ar
    14     4     5   ar
    15     5     6   ar
    16     6     9    1
    17     9    10    1
    18     9    11    1
    19     9    12    1
    20     6     7   ar
    21     7     8    1
    22    23    18    1
    23     7     2   ar
    24    15    16    1
@<TRIPOS>MOLECULE
*****
 23 24 0 0 0
SMALL
GASTEIGER

@<TRIPOS>ATOM
      1 C          61.4355   86.6292   11.3948 C.3     1  UNL1        0.1172
      2 C          62.2505   85.4587   10.9303 C.ar    1  UNL1        0.0080
      3 C          62.6931   85.3735    9.4996 C.ar    1  UNL1       -0.0018
      4 C          63.5081   84.2031    9.0352 C.ar    1  UNL1       -0.0003
      5 C          63.8806   83.1179   10.0014 C.ar    1  UNL1        0.0047
      6 C          63.4381   83.2031   11.4320 C.ar    1  UNL1        0.0817
      7 C          62.6230   84.3735   11.8965 C.ar    1  UNL1        0.0592
      8 CL         62.1804   84.4588   13.3272 Cl      1  UNL1       -0.0826
      9 C          63.8105   82.1179   12.3982 C.3     1  UNL1        0.4194
     10 F          64.1830   81.0326   13.3644 F       1  UNL1       -0.1658
     11 F          64.9297   82.9682   12.9219 F       1  UNL1       -0.1658
     12 F          62.6913   81.2675   11.8746 F       1  UNL1       -0.1658
     13 C          63.0541   88.5035   12.1804 C.2     1  UNL1        0.2408
     14 O          63.5925   87.5928   13.2438 O.2     1  UNL1       -0.2733
     15 N          61.9756   88.0216   11.2558 N.am    1  UNL1       -0.2991
     16 H          61.6222   88.6193   10.5579 H       1  UNL1        0.1498
     17 C          64.7620   90.1322   14.4343 C.3     1  UNL1        0.1153
     18 N          64.3793   90.6446   13.0774 N.am    1  UNL1       -0.2712
     19 C          64.7144   91.9955   12.5184 C.2     1  UNL1        0.2261
     20 O          65.4910   93.0713   13.2180 O.2     1  UNL1       -0.2749
     21 C          64.1365   92.0818   11.1368 C.3     1  UNL1        0.0875
     22 C          63.4442   90.7842   10.8421 C.3     1  UNL1        0.0388
     23 C          63.5942   89.8959   12.0414 C.3     1  UNL1        0.1523
@<TRIPOS>BOND
     1    17    18    1
     2    18    19   am
     3    19    20    2
     4    19    21    1
     5    21    22    1
     6    22    23    1
     7    23    13    1
     8    13    14    2
     9    13    15   am
    10    15     1    1
    11     1     2    1
    12     2     3   ar
    13     3     4   ar
    14     4     5   ar
    15     5     6   ar
    16     6     9    1
    17     9    10    1
    18     9    11    1
    19     9    12    1
    20     6     7   ar
    21     7     8    1
    22    23    18    1
    23     7     2   ar
    24    15    16    1
@<TRIPOS>MOLECULE
*****
 23 24 0 0 0
SMALL
GASTEIGER

@<TRIPOS>ATOM
      1 C          63.0217   89.8336   12.6890 C.3     1  UNL1        0.1172
      2 C          64.0215   90.8929   12.3306 C.ar    1  UNL1        0.0080
      3 C          63.9786   91.5374   10.9768 C.ar    1  UNL1       -0.0018
      4 C          64.9783   92.5967   10.6185 C.ar    1  UNL1       -0.0003
      5 C          66.0209   93.0115   11.6140 C.ar    1  UNL1        0.0047
      6 C          66.0638   92.3671   12.9677 C.ar    1  UNL1        0.0817
      7 C          65.0641   91.3078   13.3261 C.ar    1  UNL1        0.0592
      8 CL         65.1069   90.6632   14.6799 Cl      1  UNL1       -0.0826
      9 C          67.1064   92.7819   13.9632 C.3     1  UNL1        0.4194
     10 F          68.1489   93.1967   14.9586 F       1  UNL1       -0.1658
     11 F          67.9860   91.6537   13.5121 F       1  UNL1       -0.1658
     12 F          66.2268   93.9100   14.4143 F       1  UNL1       -0.1658
     13 C          62.4480   87.4025   11.9742 C.2     1  UNL1        0.2408
     14 O          61.1224   87.8695   11.4500 O.2     1  UNL1       -0.2733
     15 N          63.3976   88.3846   12.5938 N.am    1  UNL1       -0.2991
     16 H          64.2676   88.0781   12.9378 H       1  UNL1        0.1498
     17 C          63.9356   85.6505   14.2909 C.3     1  UNL1        0.1153
     18 N          63.5077   85.1482   12.9438 N.am    1  UNL1       -0.2712
     19 C          63.6884   83.7524   12.4251 C.2     1  UNL1        0.2261
     20 O          64.3288   82.6139   13.1624 O.2     1  UNL1       -0.2749
     21 C          63.1163   83.6951   11.0397 C.3     1  UNL1        0.0875
     22 C          62.5820   85.0555   10.7022 C.3     1  UNL1        0.0388
     23 C          62.8239   85.9536   11.8790 C.3     1  UNL1        0.1523
@<TRIPOS>BOND
     1    17    18    1
     2    18    19   am
     3    19    20    2
     4    19    21    1
     5    21    22    1
     6    22    23    1
     7    23    13    1
     8    13    14    2
     9    13    15   am
    10    15     1    1
    11     1     2    1
    12     2     3   ar
    13     3     4   ar
    14     4     5   ar
    15     5     6   ar
    16     6     9    1
    17     9    10    1
    18     9    11    1
    19     9    12    1
    20     6     7   ar
    21     7     8    1
    22    23    18    1
    23     7     2   ar
    24    15    16    1
@<TRIPOS>MOLECULE
*****
 23 24 0 0 0
SMALL
GASTEIGER

@<TRIPOS>ATOM
      1 C          63.4711   91.2395   11.0338 C.3     1  UNL1        0.1172
      2 C          64.0116   91.2580   12.4330 C.ar    1  UNL1        0.0080
      3 C          63.2728   90.5530   13.5317 C.ar    1  UNL1       -0.0018
      4 C          63.8132   90.5716   14.9308 C.ar    1  UNL1       -0.0003
      5 C          65.0924   91.2951   15.2312 C.ar    1  UNL1        0.0047
      6 C          65.8312   92.0000   14.1325 C.ar    1  UNL1        0.0817
      7 C          65.2907   91.9815   12.7334 C.ar    1  UNL1        0.0592
      8 CL         66.0295   92.6865   11.6346 Cl      1  UNL1       -0.0826
      9 C          67.1104   92.7235   14.4329 C.3     1  UNL1        0.4194
     10 F          68.3895   93.4471   14.7333 F       1  UNL1       -0.1658
     11 F          67.8557   91.4224   14.3928 F       1  UNL1       -0.1658
     12 F          66.3650   94.0247   14.4731 F       1  UNL1       -0.1658
     13 C          61.7180   89.4215   10.4243 C.2     1  UNL1        0.2408
     14 O          60.6531   90.2143   11.1227 O.2     1  UNL1       -0.2733
     15 N          63.1270   89.9342   10.3799 N.am    1  UNL1       -0.2991
     16 H          63.8259   89.4139    9.9216 H       1  UNL1        0.1498
     17 C          59.6704   89.0135    7.9162 C.3     1  UNL1        0.1153
     18 N          60.4327   87.9286    8.6176 N.am    1  UNL1       -0.2712
     19 C          60.3876   86.4657    8.2892 C.2     1  UNL1        0.2261
     20 O          59.5724   85.8309    7.2019 O.2     1  UNL1       -0.2749
     21 C          61.3010   85.7491    9.2392 C.3     1  UNL1        0.0875
     22 C          61.9105   86.7692   10.1546 C.3     1  UNL1        0.0388
     23 C          61.3739   88.1162    9.7704 C.3     1  UNL1        0.1523
@<TRIPOS>BOND
     1    17    18    1
     2    18    19   am
     3    19    20    2
     4    19    21    1
     5    21    22    1
     6    22    23    1
     7    23    13    1
     8    13    14    2
     9    13    15   am
    10    15     1    1
    11     1     2    1
    12     2     3   ar
    13     3     4   ar
    14     4     5   ar
    15     5     6   ar
    16     6     9    1
    17     9    10    1
    18     9    11    1
    19     9    12    1
    20     6     7   ar
    21     7     8    1
    22    23    18    1
    23     7     2   ar
    24    15    16    1
@<TRIPOS>MOLECULE
*****
 23 24 0 0 0
SMALL
GASTEIGER

@<TRIPOS>ATOM
      1 C          61.9127   90.1667   11.3837 C.3     1  UNL1        0.1172
      2 C          61.8180   88.7218   10.9920 C.ar    1  UNL1        0.0080
      3 C          62.5548   87.6809   11.7817 C.ar    1  UNL1       -0.0018
      4 C          62.4602   86.2361   11.3900 C.ar    1  UNL1       -0.0003
      5 C          61.6287   85.8322   10.2087 C.ar    1  UNL1        0.0047
      6 C          60.8919   86.8731    9.4190 C.ar    1  UNL1        0.0817
      7 C          60.9866   88.3179    9.8107 C.ar    1  UNL1        0.0592
      8 CL         60.2497   89.3589    9.0211 Cl      1  UNL1       -0.0826
      9 C          60.0604   86.4692    8.2377 C.3     1  UNL1        0.4194
     10 F          59.2289   86.0653    7.0564 F       1  UNL1       -0.1658
     11 F          61.3007   86.0406    7.5112 F       1  UNL1       -0.1658
     12 F          58.8200   86.8978    8.9642 F       1  UNL1       -0.1658
     13 C          64.1186   91.3442   12.0893 C.2     1  UNL1        0.2408
     14 O          64.4036   91.6706   10.6533 O.2     1  UNL1       -0.2733
     15 N          62.8731   90.5922   12.4545 N.am    1  UNL1       -0.2991
     16 H          62.6860   90.3779   13.3970 H       1  UNL1        0.1498
     17 C          66.0608   93.9649   11.9931 C.3     1  UNL1        0.1153
     18 N          65.9717   92.9742   13.1159 N.am    1  UNL1       -0.2712
     19 C          66.7597   93.0143   14.3916 C.2     1  UNL1        0.2261
     20 O          67.7751   94.0520   14.7685 O.2     1  UNL1       -0.2749
     21 C          66.3540   91.8343   15.2242 C.3     1  UNL1        0.0875
     22 C          65.3152   91.0651   14.4631 C.3     1  UNL1        0.0388
     23 C          65.0790   91.7696   13.1601 C.3     1  UNL1        0.1523
@<TRIPOS>BOND
     1    17    18    1
     2    18    19   am
     3    19    20    2
     4    19    21    1
     5    21    22    1
     6    22    23    1
     7    23    13    1
     8    13    14    2
     9    13    15   am
    10    15     1    1
    11     1     2    1
    12     2     3   ar
    13     3     4   ar
    14     4     5   ar
    15     5     6   ar
    16     6     9    1
    17     9    10    1
    18     9    11    1
    19     9    12    1
    20     6     7   ar
    21     7     8    1
    22    23    18    1
    23     7     2   ar
    24    15    16    1
@<TRIPOS>MOLECULE
*****
 23 24 0 0 0
SMALL
GASTEIGER

@<TRIPOS>ATOM
      1 C          62.9111   86.9232   12.7185 C.3     1  UNL1        0.1172
      2 C          63.3370   85.5075   12.9726 C.ar    1  UNL1        0.0080
      3 C          63.9644   85.1368   14.2836 C.ar    1  UNL1       -0.0018
      4 C          64.3903   83.7212   14.5376 C.ar    1  UNL1       -0.0003
      5 C          64.1888   82.6762   13.4805 C.ar    1  UNL1        0.0047
      6 C          63.5614   83.0469   12.1695 C.ar    1  UNL1        0.0817
      7 C          63.1355   84.4625   11.9155 C.ar    1  UNL1        0.0592
      8 CL         62.5080   84.8332   10.6044 Cl      1  UNL1       -0.0826
      9 C          63.3599   82.0019   11.1124 C.3     1  UNL1        0.4194
     10 F          63.1583   80.9569   10.0554 F       1  UNL1       -0.1658
     11 F          62.1513   81.4960   11.8429 F       1  UNL1       -0.1658
     12 F          64.5684   82.5077   10.3819 F       1  UNL1       -0.1658
     13 C          63.3398   89.4690   13.0102 C.2     1  UNL1        0.2408
     14 O          61.9093   89.7503   12.6573 O.2     1  UNL1       -0.2733
     15 N          63.8407   88.0554   13.0408 N.am    1  UNL1       -0.2991
     16 H          64.7795   87.8707   13.2725 H       1  UNL1        0.1498
     17 C          64.2901   91.8161   10.9517 C.3     1  UNL1        0.1153
     18 N          64.7062   91.6801   12.3864 N.am    1  UNL1       -0.2712
     19 C          65.6321   92.5990   13.1267 C.2     1  UNL1        0.2261
     20 O          66.3045   93.8153   12.5624 O.2     1  UNL1       -0.2749
     21 C          65.7676   92.0881   14.5305 C.3     1  UNL1        0.0875
     22 C          64.9253   90.8534   14.6577 C.3     1  UNL1        0.0388
     23 C          64.2693   90.6012   13.3326 C.3     1  UNL1        0.1523
@<TRIPOS>BOND
     1    17    18    1
     2    18    19   am
     3    19    20    2
     4    19    21    1
     5    21    22    1
     6    22    23    1
     7    23    13    1
     8    13    14    2
     9    13    15   am
    10    15     1    1
    11     1     2    1
    12     2     3   ar
    13     3     4   ar
    14     4     5   ar
    15     5     6   ar
    16     6     9    1
    17     9    10    1
    18     9    11    1
    19     9    12    1
    20     6     7   ar
    21     7     8    1
    22    23    18    1
    23     7     2   ar
    24    15    16    1
