@<TRIPOS>MOLECULE
*****
 14 15 0 0 0
SMALL
GASTEIGER

@<TRIPOS>ATOM
      1 C          60.6111   87.6946   10.6380 C.ar    1  UNL1        0.1337
      2 C          61.0678   87.3662    9.2474 C.ar    1  UNL1        0.0370
      3 C          61.9397   86.1479    9.3215 C.ar    1  UNL1        0.0403
      4 C          62.0219   85.7233   10.7578 C.ar    1  UNL1        0.1464
      5 O          61.2008   86.6792   11.5714 O.2     1  UNL1       -0.4568
      6 C          62.7903   84.5490   11.2875 C.ar    1  UNL1        0.0537
      7 C          63.5922   83.6937   10.3519 C.ar    1  UNL1        0.0062
      8 C          64.3606   82.5194   10.8815 C.ar    1  UNL1        0.0208
      9 C          64.3271   82.2004   12.3468 C.ar    1  UNL1        0.0989
     10 N          63.5252   83.0557   13.2825 N.ar    1  UNL1       -0.2422
     11 C          62.7568   84.2300   12.7528 C.ar    1  UNL1        0.1019
     12 C          59.7211   88.8377   11.0268 C.3     1  UNL1        0.1218
     13 C          61.7784   90.4210   11.1299 C.3     1  UNL1        0.0696
     14 S          60.2932   90.2160   11.1780 S.3     1  UNL1       -0.1312
@<TRIPOS>BOND
     1    13    14    1
     2    14    12    1
     3    12     1    1
     4     1     2   ar
     5     2     3   ar
     6     3     4   ar
     7     4     6    1
     8     6     7   ar
     9     7     8   ar
    10     8     9   ar
    11     9    10   ar
    12    10    11   ar
    13     4     5   ar
    14     5     1   ar
    15    11     6   ar
@<TRIPOS>MOLECULE
*****
 14 15 0 0 0
SMALL
GASTEIGER

@<TRIPOS>ATOM
      1 C          63.2427   83.6143   11.5591 C.ar    1  UNL1        0.1337
      2 C          63.8890   83.4672   10.2134 C.ar    1  UNL1        0.0370
      3 C          63.3468   84.5423    9.3189 C.ar    1  UNL1        0.0403
      4 C          62.3655   85.3539   10.1117 C.ar    1  UNL1        0.1464
      5 O          62.3012   84.7803   11.4962 O.2     1  UNL1       -0.4568
      6 C          61.5855   86.5321    9.6083 C.ar    1  UNL1        0.0537
      7 C          60.4529   86.3263    8.6466 C.ar    1  UNL1        0.0062
      8 C          59.6730   87.5045    8.1433 C.ar    1  UNL1        0.0208
      9 C          60.0256   88.8886    8.6016 C.ar    1  UNL1        0.0989
     10 N          61.1581   89.0944    9.5633 N.ar    1  UNL1       -0.2422
     11 C          61.9381   87.9162   10.0667 C.ar    1  UNL1        0.1019
     12 C          63.4940   82.7476   12.7573 C.3     1  UNL1        0.1218
     13 C          61.6569   81.3267   13.9220 C.3     1  UNL1        0.0696
     14 S          62.7585   81.4494   12.9113 S.3     1  UNL1       -0.1312
@<TRIPOS>BOND
     1    13    14    1
     2    14    12    1
     3    12     1    1
     4     1     2   ar
     5     2     3   ar
     6     3     4   ar
     7     4     6    1
     8     6     7   ar
     9     7     8   ar
    10     8     9   ar
    11     9    10   ar
    12    10    11   ar
    13     4     5   ar
    14     5     1   ar
    15    11     6   ar
@<TRIPOS>MOLECULE
*****
 14 15 0 0 0
SMALL
GASTEIGER

@<TRIPOS>ATOM
      1 C          62.6169   84.7659   12.4781 C.ar    1  UNL1        0.1337
      2 C          63.2641   84.1253   11.2861 C.ar    1  UNL1        0.0370
      3 C          62.7520   84.8130   10.0553 C.ar    1  UNL1        0.0403
      4 C          61.7884   85.8786   10.4866 C.ar    1  UNL1        0.1464
      5 O          61.7049   85.8495   11.9840 O.2     1  UNL1       -0.4568
      6 C          61.0397   86.8098    9.5797 C.ar    1  UNL1        0.0537
      7 C          60.1586   86.2570    8.4989 C.ar    1  UNL1        0.0062
      8 C          59.4100   87.1882    7.5921 C.ar    1  UNL1        0.0208
      9 C          59.5425   88.6722    7.7660 C.ar    1  UNL1        0.0989
     10 N          60.4236   89.2250    8.8468 N.ar    1  UNL1       -0.2422
     11 C          61.1722   88.2938    9.7536 C.ar    1  UNL1        0.1019
     12 C          62.8422   84.3891   13.9124 C.3     1  UNL1        0.1218
     13 C          62.0404   81.9512   14.3173 C.3     1  UNL1        0.0696
     14 S          63.1448   82.9654   14.2752 S.3     1  UNL1       -0.1312
@<TRIPOS>BOND
     1    13    14    1
     2    14    12    1
     3    12     1    1
     4     1     2   ar
     5     2     3   ar
     6     3     4   ar
     7     4     6    1
     8     6     7   ar
     9     7     8   ar
    10     8     9   ar
    11     9    10   ar
    12    10    11   ar
    13     4     5   ar
    14     5     1   ar
    15    11     6   ar
@<TRIPOS>MOLECULE
*****
 14 15 0 0 0
SMALL
GASTEIGER

@<TRIPOS>ATOM
      1 C          63.7032   88.1812   13.3565 C.ar    1  UNL1        0.1337
      2 C          64.4293   87.8929   14.6371 C.ar    1  UNL1        0.0370
      3 C          64.4329   86.4072   14.8434 C.ar    1  UNL1        0.0403
      4 C          63.7090   85.7773   13.6905 C.ar    1  UNL1        0.1464
      5 O          63.2581   86.8737   12.7715 O.2     1  UNL1       -0.4568
      6 C          63.4769   84.3087   13.4915 C.ar    1  UNL1        0.0537
      7 C          62.9260   83.8061   12.1900 C.ar    1  UNL1        0.0062
      8 C          62.6939   82.3376   11.9911 C.ar    1  UNL1        0.0208
      9 C          63.0128   81.3718   13.0936 C.ar    1  UNL1        0.0989
     10 N          63.5637   81.8744   14.3950 N.ar    1  UNL1       -0.2422
     11 C          63.7958   83.3429   14.5940 C.ar    1  UNL1        0.1019
     12 C          63.4643   89.5388   12.7648 C.3     1  UNL1        0.1218
     13 C          62.9555   90.7122   10.5033 C.3     1  UNL1        0.0696
     14 S          62.6116   89.6832   11.5392 S.3     1  UNL1       -0.1312
@<TRIPOS>BOND
     1    13    14    1
     2    14    12    1
     3    12     1    1
     4     1     2   ar
     5     2     3   ar
     6     3     4   ar
     7     4     6    1
     8     6     7   ar
     9     7     8   ar
    10     8     9   ar
    11     9    10   ar
    12    10    11   ar
    13     4     5   ar
    14     5     1   ar
    15    11     6   ar
@<TRIPOS>MOLECULE
*****
 14 15 0 0 0
SMALL
GASTEIGER

@<TRIPOS>ATOM
      1 C          66.2583   93.6685   10.9510 C.ar    1  UNL1        0.1337
      2 C          66.4134   93.3415   12.4067 C.ar    1  UNL1        0.0370
      3 C          65.3879   92.3056   12.7608 C.ar    1  UNL1        0.0403
      4 C          64.5991   91.9924   11.5239 C.ar    1  UNL1        0.1464
      5 O          65.1371   92.8348   10.4054 O.2     1  UNL1       -0.4568
      6 C          63.4705   91.0094   11.4233 C.ar    1  UNL1        0.0537
      7 C          62.7977   90.7726   10.1038 C.ar    1  UNL1        0.0062
      8 C          61.6691   89.7896   10.0032 C.ar    1  UNL1        0.0208
      9 C          61.2135   89.0435   11.2221 C.ar    1  UNL1        0.0989
     10 N          61.8863   89.2804   12.5416 N.ar    1  UNL1       -0.2422
     11 C          63.0149   90.2633   12.6422 C.ar    1  UNL1        0.1019
     12 C          67.0803   94.6560   10.1768 C.3     1  UNL1        0.1218
     13 C          68.4899   92.7616    9.0932 C.3     1  UNL1        0.0696
     14 S          67.9997   94.1793    9.0918 S.3     1  UNL1       -0.1312
@<TRIPOS>BOND
     1    13    14    1
     2    14    12    1
     3    12     1    1
     4     1     2   ar
     5     2     3   ar
     6     3     4   ar
     7     4     6    1
     8     6     7   ar
     9     7     8   ar
    10     8     9   ar
    11     9    10   ar
    12    10    11   ar
    13     4     5   ar
    14     5     1   ar
    15    11     6   ar
@<TRIPOS>MOLECULE
*****
 14 15 0 0 0
SMALL
GASTEIGER

@<TRIPOS>ATOM
      1 C          62.5711   89.4981   11.2181 C.ar    1  UNL1        0.1337
      2 C          62.7951   90.5259   10.1487 C.ar    1  UNL1        0.0370
      3 C          63.7663   91.5399   10.6766 C.ar    1  UNL1        0.0403
      4 C          64.1424   91.1389   12.0722 C.ar    1  UNL1        0.1464
      5 O          63.4038   89.8770   12.4068 O.2     1  UNL1       -0.4568
      6 C          65.0908   91.8712   12.9747 C.ar    1  UNL1        0.0537
      7 C          65.3448   91.3663   14.3641 C.ar    1  UNL1        0.0062
      8 C          66.2931   92.0986   15.2665 C.ar    1  UNL1        0.0208
      9 C          66.9874   93.3358   14.7795 C.ar    1  UNL1        0.0989
     10 N          66.7334   93.8407   13.3901 N.ar    1  UNL1       -0.2422
     11 C          65.7851   93.1084   12.4877 C.ar    1  UNL1        0.1019
     12 C          61.6722   88.3016   11.1165 C.3     1  UNL1        0.1218
     13 C          59.4721   89.3521   12.0142 C.3     1  UNL1        0.0696
     14 S          60.1867   88.4856   11.0200 S.3     1  UNL1       -0.1312
@<TRIPOS>BOND
     1    13    14    1
     2    14    12    1
     3    12     1    1
     4     1     2   ar
     5     2     3   ar
     6     3     4   ar
     7     4     6    1
     8     6     7   ar
     9     7     8   ar
    10     8     9   ar
    11     9    10   ar
    12    10    11   ar
    13     4     5   ar
    14     5     1   ar
    15    11     6   ar
@<TRIPOS>MOLECULE
*****
 14 15 0 0 0
SMALL
GASTEIGER

@<TRIPOS>ATOM
      1 C          63.0496   84.0929   12.5355 C.ar    1  UNL1        0.1337
      2 C          63.1172   83.8217   11.0617 C.ar    1  UNL1        0.0370
      3 C          62.6758   85.0614   10.3416 C.ar    1  UNL1        0.0403
      4 C          62.3355   86.0986   11.3703 C.ar    1  UNL1        0.1464
      5 O          62.5665   85.5001   12.7262 O.2     1  UNL1       -0.4568
      6 C          61.8494   87.4902   11.0920 C.ar    1  UNL1        0.0537
      7 C          62.6621   88.6709   11.5340 C.ar    1  UNL1        0.0062
      8 C          62.1760   90.0624   11.2556 C.ar    1  UNL1        0.0208
      9 C          60.8773   90.2731   10.5353 C.ar    1  UNL1        0.0989
     10 N          60.0646   89.0924   10.0934 N.ar    1  UNL1       -0.2422
     11 C          60.5507   87.7009   10.3717 C.ar    1  UNL1        0.1019
     12 C          63.4032   83.1265   13.6269 C.3     1  UNL1        0.1218
     13 C          61.6110   81.3108   14.1180 C.3     1  UNL1        0.0696
     14 S          62.3281   82.5682   14.5115 S.3     1  UNL1       -0.1312
@<TRIPOS>BOND
     1    13    14    1
     2    14    12    1
     3    12     1    1
     4     1     2   ar
     5     2     3   ar
     6     3     4   ar
     7     4     6    1
     8     6     7   ar
     9     7     8   ar
    10     8     9   ar
    11     9    10   ar
    12    10    11   ar
    13     4     5   ar
    14     5     1   ar
    15    11     6   ar
@<TRIPOS>MOLECULE
*****
 14 15 0 0 0
SMALL
GASTEIGER

@<TRIPOS>ATOM
      1 C          61.7611   88.5264   11.0311 C.ar    1  UNL1        0.1337
      2 C          61.7452   89.6619   10.0510 C.ar    1  UNL1        0.0370
      3 C          62.6488   90.7387   10.5745 C.ar    1  UNL1        0.0403
      4 C          63.2230   90.2687   11.8781 C.ar    1  UNL1        0.1464
      5 O          62.6744   88.9015   12.1603 O.2     1  UNL1       -0.4568
      6 C          64.1783   91.0320   12.7471 C.ar    1  UNL1        0.0537
      7 C          64.4427   90.5763   14.1514 C.ar    1  UNL1        0.0062
      8 C          65.3979   91.3396   15.0203 C.ar    1  UNL1        0.0208
      9 C          66.0886   92.5587   14.4847 C.ar    1  UNL1        0.0989
     10 N          65.8242   93.0144   13.0803 N.ar    1  UNL1       -0.2422
     11 C          64.8690   92.2510   12.2115 C.ar    1  UNL1        0.1019
     12 C          60.9976   87.2415   10.9042 C.3     1  UNL1        0.1218
     13 C          62.1123   86.0186    8.9012 C.3     1  UNL1        0.0696
     14 S          61.6651   86.0257   10.3330 S.3     1  UNL1       -0.1312
@<TRIPOS>BOND
     1    13    14    1
     2    14    12    1
     3    12     1    1
     4     1     2   ar
     5     2     3   ar
     6     3     4   ar
     7     4     6    1
     8     6     7   ar
     9     7     8   ar
    10     8     9   ar
    11     9    10   ar
    12    10    11   ar
    13     4     5   ar
    14     5     1   ar
    15    11     6   ar
@<TRIPOS>MOLECULE
*****
 14 15 0 0 0
SMALL
GASTEIGER

@<TRIPOS>ATOM
      1 C          63.8046   87.2618   13.6785 C.ar    1  UNL1        0.1337
      2 C          64.4848   86.8164   14.9390 C.ar    1  UNL1        0.0370
      3 C          64.3159   85.3305   15.0565 C.ar    1  UNL1        0.0403
      4 C          63.5315   84.8577   13.8686 C.ar    1  UNL1        0.1464
      5 O          63.2155   86.0514   13.0169 O.2     1  UNL1       -0.4568
      6 C          63.1330   83.4401   13.5826 C.ar    1  UNL1        0.0537
      7 C          62.2088   82.7177   14.5174 C.ar    1  UNL1        0.0062
      8 C          61.8104   81.3002   14.2314 C.ar    1  UNL1        0.0208
      9 C          62.3362   80.6051   13.0106 C.ar    1  UNL1        0.0989
     10 N          63.2605   81.3275   12.0758 N.ar    1  UNL1       -0.2422
     11 C          63.6589   82.7450   12.3618 C.ar    1  UNL1        0.1019
     12 C          63.7272   88.6705   13.1689 C.3     1  UNL1        0.1218
     13 C          64.0442   91.2203   13.5543 C.3     1  UNL1        0.0696
     14 S          64.2047   89.8053   14.0257 S.3     1  UNL1       -0.1312
@<TRIPOS>BOND
     1    13    14    1
     2    14    12    1
     3    12     1    1
     4     1     2   ar
     5     2     3   ar
     6     3     4   ar
     7     4     6    1
     8     6     7   ar
     9     7     8   ar
    10     8     9   ar
    11     9    10   ar
    12    10    11   ar
    13     4     5   ar
    14     5     1   ar
    15    11     6   ar
