@<TRIPOS>MOLECULE
*****
 23 27 0 0 0
SMALL
GASTEIGER

@<TRIPOS>ATOM
      1 C          62.5932   86.2981   11.6476 C.3     1  UNL1        0.1121
      2 C          61.7551   86.9120   10.5656 C.ar    1  UNL1       -0.0002
      3 C          60.9376   86.3060    9.4636 C.ar    1  UNL1       -0.0024
      4 C          60.1897   87.1910    8.5110 C.ar    1  UNL1       -0.0003
      5 C          60.2594   88.6819    8.6604 C.ar    1  UNL1        0.0000
      6 C          61.0769   89.2879    9.7624 C.ar    1  UNL1        0.0012
      7 C          61.8248   88.4029   10.7150 C.ar    1  UNL1        0.0152
      8 C          62.7059   88.7104   11.8893 C.ar    1  UNL1        0.0804
      9 C          63.2935   89.8220   12.7075 C.ar    1  UNL1        0.1177
     10 N          64.1315   89.2080   13.7895 N.ar    1  UNL1       -0.2223
     11 C          64.0619   87.7171   13.6401 C.ar    1  UNL1        0.1788
     12 N          63.1808   87.4096   12.4658 N.ar    1  UNL1       -0.3069
     13 O          62.0568   85.0998   14.3452 O.3     1  UNL1       -0.3783
     14 C          62.5380   84.2312   13.2209 C.3     1  UNL1        0.1568
     15 C          62.7511   82.7635   13.4454 C.ar    1  UNL1        0.1433
     16 N          62.5721   81.8970   14.6566 N.ar    1  UNL1       -0.0506
     17 O          62.9427   80.4929   14.2810 O.2     1  UNL1       -0.2421
     18 N          63.3508   80.4916   12.8376 N.ar    1  UNL1       -0.0529
     19 C          63.2323   81.8949   12.3211 C.ar    1  UNL1        0.1190
     20 C          63.5006   82.4941   10.9724 C.3     1  UNL1        0.0508
     21 C          63.2875   83.9618   10.7480 C.3     1  UNL1        0.0115
     22 C          62.8063   84.8304   11.8721 C.3     1  UNL1        0.0582
     23 H          61.9336   84.5595   15.1413 H       1  UNL1        0.2109
@<TRIPOS>BOND
     1    14    13    1
     2    14    15    1
     3    15    16   ar
     4    16    17   ar
     5    17    18   ar
     6    18    19   ar
     7    19    20    1
     8    20    21    1
     9    22    21    1
    10    22     1    1
    11     1     2    1
    12     2     3   ar
    13     3     4   ar
    14     4     5   ar
    15     5     6   ar
    16     6     7   ar
    17     7     8    1
    18     8     9   ar
    19     9    10   ar
    20    10    11   ar
    21    11    12   ar
    22    22    14    1
    23     1    12    1
    24    19    15   ar
    25     7     2   ar
    26    12     8   ar
    27    13    23    1
@<TRIPOS>MOLECULE
*****
 23 27 0 0 0
SMALL
GASTEIGER

@<TRIPOS>ATOM
      1 C          62.8662   86.1972   11.9711 C.3     1  UNL1        0.1121
      2 C          63.3171   87.4493   12.6631 C.ar    1  UNL1       -0.0002
      3 C          63.2282   88.8964   12.2783 C.ar    1  UNL1       -0.0024
      4 C          63.7786   89.9506   13.1924 C.ar    1  UNL1       -0.0003
      5 C          64.4178   89.5578   14.4913 C.ar    1  UNL1        0.0000
      6 C          64.5067   88.1108   14.8761 C.ar    1  UNL1        0.0012
      7 C          63.9563   87.0565   13.9620 C.ar    1  UNL1        0.0152
      8 C          63.9005   85.5616   14.0726 C.ar    1  UNL1        0.0804
      9 C          64.2610   84.3950   14.9439 C.ar    1  UNL1        0.1177
     10 N          63.8101   83.1429   14.2518 N.ar    1  UNL1       -0.2223
     11 C          63.1708   83.5357   12.9529 C.ar    1  UNL1        0.1788
     12 N          63.2267   85.0305   12.8422 N.ar    1  UNL1       -0.3069
     13 O          60.1649   87.4522   11.6127 O.3     1  UNL1       -0.3783
     14 C          60.8252   86.7521   10.4621 C.3     1  UNL1        0.1568
     15 C          60.1349   86.6794    9.1324 C.ar    1  UNL1        0.1433
     16 N          58.8102   87.2004    8.6594 N.ar    1  UNL1       -0.0506
     17 O          58.6518   86.8223    7.2165 O.2     1  UNL1       -0.2421
     18 N          59.8786   86.0676    6.7978 N.ar    1  UNL1       -0.0529
     19 C          60.7952   85.9793    7.9818 C.ar    1  UNL1        0.1190
     20 C          62.1458   85.3518    8.1610 C.3     1  UNL1        0.0508
     21 C          62.8361   85.4245    9.4908 C.3     1  UNL1        0.0115
     22 C          62.1759   86.1245   10.6413 C.3     1  UNL1        0.0582
     23 H          59.3041   87.7984   11.3295 H       1  UNL1        0.2109
@<TRIPOS>BOND
     1    14    13    1
     2    14    15    1
     3    15    16   ar
     4    16    17   ar
     5    17    18   ar
     6    18    19   ar
     7    19    20    1
     8    20    21    1
     9    22    21    1
    10    22     1    1
    11     1     2    1
    12     2     3   ar
    13     3     4   ar
    14     4     5   ar
    15     5     6   ar
    16     6     7   ar
    17     7     8    1
    18     8     9   ar
    19     9    10   ar
    20    10    11   ar
    21    11    12   ar
    22    22    14    1
    23     1    12    1
    24    19    15   ar
    25     7     2   ar
    26    12     8   ar
    27    13    23    1
@<TRIPOS>MOLECULE
*****
 23 27 0 0 0
SMALL
GASTEIGER

@<TRIPOS>ATOM
      1 C          62.8609   86.3830   11.9875 C.3     1  UNL1        0.1121
      2 C          63.2317   85.2527   12.9013 C.ar    1  UNL1       -0.0002
      3 C          63.0408   83.7691   12.7911 C.ar    1  UNL1       -0.0024
      4 C          63.5263   82.8671   13.8868 C.ar    1  UNL1       -0.0003
      5 C          64.2027   83.4487   15.0927 C.ar    1  UNL1        0.0000
      6 C          64.3936   84.9324   15.2028 C.ar    1  UNL1        0.0012
      7 C          63.9081   85.8344   14.1071 C.ar    1  UNL1        0.0152
      8 C          63.9554   87.3242   13.9386 C.ar    1  UNL1        0.0804
      9 C          64.4027   88.6044   14.5797 C.ar    1  UNL1        0.1177
     10 N          64.0319   89.7347   13.6658 N.ar    1  UNL1       -0.2223
     11 C          63.3555   89.1530   12.4600 C.ar    1  UNL1        0.1788
     12 N          63.3082   87.6632   12.6285 N.ar    1  UNL1       -0.3069
     13 O          60.1482   87.6028   11.5958 O.3     1  UNL1       -0.3783
     14 C          60.8087   86.8654   10.4690 C.3     1  UNL1        0.1568
     15 C          60.1128   86.7378    9.1463 C.ar    1  UNL1        0.1433
     16 N          58.7818   87.2305    8.6607 N.ar    1  UNL1       -0.0506
     17 O          58.6197   86.7975    7.2337 O.2     1  UNL1       -0.2421
     18 N          59.8505   86.0372    6.8374 N.ar    1  UNL1       -0.0529
     19 C          60.7733   86.0003    8.0194 C.ar    1  UNL1        0.1190
     20 C          62.1296   85.3904    8.2152 C.3     1  UNL1        0.0508
     21 C          62.8255   85.5180    9.5379 C.3     1  UNL1        0.0115
     22 C          62.1651   86.2554   10.6648 C.3     1  UNL1        0.0582
     23 H          59.2834   87.9316   11.3042 H       1  UNL1        0.2109
@<TRIPOS>BOND
     1    14    13    1
     2    14    15    1
     3    15    16   ar
     4    16    17   ar
     5    17    18   ar
     6    18    19   ar
     7    19    20    1
     8    20    21    1
     9    22    21    1
    10    22     1    1
    11     1     2    1
    12     2     3   ar
    13     3     4   ar
    14     4     5   ar
    15     5     6   ar
    16     6     7   ar
    17     7     8    1
    18     8     9   ar
    19     9    10   ar
    20    10    11   ar
    21    11    12   ar
    22    22    14    1
    23     1    12    1
    24    19    15   ar
    25     7     2   ar
    26    12     8   ar
    27    13    23    1
@<TRIPOS>MOLECULE
*****
 23 27 0 0 0
SMALL
GASTEIGER

@<TRIPOS>ATOM
      1 C          62.6851   86.1464   11.7886 C.3     1  UNL1        0.1121
      2 C          63.2714   87.2011   12.6796 C.ar    1  UNL1       -0.0002
      3 C          64.1136   87.1144   13.9178 C.ar    1  UNL1       -0.0024
      4 C          64.5611   88.3677   14.6097 C.ar    1  UNL1       -0.0003
      5 C          64.1665   89.7078   14.0635 C.ar    1  UNL1        0.0000
      6 C          63.3243   89.7946   12.8253 C.ar    1  UNL1        0.0012
      7 C          62.8767   88.5412   12.1334 C.ar    1  UNL1        0.0152
      8 C          62.0465   88.3147   10.9048 C.ar    1  UNL1        0.0804
      9 C          61.2895   89.0030    9.8078 C.ar    1  UNL1        0.1177
     10 N          60.7033   87.9483    8.9168 N.ar    1  UNL1       -0.2223
     11 C          61.0979   86.6082    9.4630 C.ar    1  UNL1        0.1788
     12 N          61.9281   86.8347   10.6916 N.ar    1  UNL1       -0.3069
     13 O          61.9571   84.8664   14.4024 O.3     1  UNL1       -0.3783
     14 C          62.4663   84.0237   13.2707 C.3     1  UNL1        0.1568
     15 C          62.6116   82.5411   13.4459 C.ar    1  UNL1        0.1433
     16 N          62.3341   81.6360   14.6094 N.ar    1  UNL1       -0.0506
     17 O          62.6719   80.2339   14.1968 O.2     1  UNL1       -0.2421
     18 N          63.1581   80.2726   12.7783 N.ar    1  UNL1       -0.0529
     19 C          63.1209   81.6985   12.3142 C.ar    1  UNL1        0.1190
     20 C          63.4848   82.3385   11.0074 C.3     1  UNL1        0.0508
     21 C          63.3396   83.8212   10.8322 C.3     1  UNL1        0.0115
     22 C          62.8304   84.6638   11.9638 C.3     1  UNL1        0.0582
     23 H          61.7703   84.3008   15.1680 H       1  UNL1        0.2109
@<TRIPOS>BOND
     1    14    13    1
     2    14    15    1
     3    15    16   ar
     4    16    17   ar
     5    17    18   ar
     6    18    19   ar
     7    19    20    1
     8    20    21    1
     9    22    21    1
    10    22     1    1
    11     1     2    1
    12     2     3   ar
    13     3     4   ar
    14     4     5   ar
    15     5     6   ar
    16     6     7   ar
    17     7     8    1
    18     8     9   ar
    19     9    10   ar
    20    10    11   ar
    21    11    12   ar
    22    22    14    1
    23     1    12    1
    24    19    15   ar
    25     7     2   ar
    26    12     8   ar
    27    13    23    1
@<TRIPOS>MOLECULE
*****
 23 27 0 0 0
SMALL
GASTEIGER

@<TRIPOS>ATOM
      1 C          61.9494   86.5897   10.1594 C.3     1  UNL1        0.1121
      2 C          62.2204   87.9360   10.7626 C.ar    1  UNL1       -0.0002
      3 C          63.1388   88.3759   11.8639 C.ar    1  UNL1       -0.0024
      4 C          63.1977   89.8218   12.2587 C.ar    1  UNL1       -0.0003
      5 C          62.3380   90.8277   11.5523 C.ar    1  UNL1        0.0000
      6 C          61.4195   90.3878   10.4511 C.ar    1  UNL1        0.0012
      7 C          61.3607   88.9420   10.0562 C.ar    1  UNL1        0.0152
      8 C          60.5584   88.2173    9.0164 C.ar    1  UNL1        0.0804
      9 C          59.5312   88.3912    7.9371 C.ar    1  UNL1        0.1177
     10 N          59.2603   87.0448    7.3339 N.ar    1  UNL1       -0.2223
     11 C          60.1199   86.0388    8.0403 C.ar    1  UNL1        0.1788
     12 N          60.9222   86.7635    9.0801 N.ar    1  UNL1       -0.3069
     13 O          61.6940   85.6066   12.9823 O.3     1  UNL1       -0.3783
     14 C          62.4649   84.8050   11.9758 C.3     1  UNL1        0.1568
     15 C          63.1082   83.5118   12.3807 C.ar    1  UNL1        0.1433
     16 N          63.1530   82.7796   13.6891 N.ar    1  UNL1       -0.0506
     17 O          63.9517   81.5254   13.4912 O.2     1  UNL1       -0.2421
     18 N          64.4004   81.4825   12.0606 N.ar    1  UNL1       -0.0529
     19 C          63.8791   82.7101   11.3742 C.ar    1  UNL1        0.1190
     20 C          64.0067   83.2016    9.9628 C.3     1  UNL1        0.0508
     21 C          63.3635   84.4948    9.5579 C.3     1  UNL1        0.0115
     22 C          62.5926   85.2965   10.5643 C.3     1  UNL1        0.0582
     23 H          61.7093   85.1512   13.8386 H       1  UNL1        0.2109
@<TRIPOS>BOND
     1    14    13    1
     2    14    15    1
     3    15    16   ar
     4    16    17   ar
     5    17    18   ar
     6    18    19   ar
     7    19    20    1
     8    20    21    1
     9    22    21    1
    10    22     1    1
    11     1     2    1
    12     2     3   ar
    13     3     4   ar
    14     4     5   ar
    15     5     6   ar
    16     6     7   ar
    17     7     8    1
    18     8     9   ar
    19     9    10   ar
    20    10    11   ar
    21    11    12   ar
    22    22    14    1
    23     1    12    1
    24    19    15   ar
    25     7     2   ar
    26    12     8   ar
    27    13    23    1
@<TRIPOS>MOLECULE
*****
 23 27 0 0 0
SMALL
GASTEIGER

@<TRIPOS>ATOM
      1 C          63.1348   88.9336   12.4042 C.3     1  UNL1        0.1121
      2 C          63.1914   87.4461   12.5890 C.ar    1  UNL1       -0.0002
      3 C          63.8984   86.5857   13.5939 C.ar    1  UNL1       -0.0024
      4 C          63.7666   85.0930   13.5280 C.ar    1  UNL1       -0.0003
      5 C          62.9278   84.4607   12.4572 C.ar    1  UNL1        0.0000
      6 C          62.2209   85.3211   11.4523 C.ar    1  UNL1        0.0012
      7 C          62.3527   86.8138   11.5182 C.ar    1  UNL1        0.0152
      8 C          61.7776   87.9105   10.6717 C.ar    1  UNL1        0.0804
      9 C          60.9038   88.1975    9.4866 C.ar    1  UNL1        0.1177
     10 N          60.8472   89.6851    9.3020 N.ar    1  UNL1       -0.2223
     11 C          61.6860   90.3174   10.3728 C.ar    1  UNL1        0.1788
     12 N          62.2610   89.2206   11.2193 N.ar    1  UNL1       -0.3069
     13 O          62.1473   89.4955   15.1809 O.3     1  UNL1       -0.3783
     14 C          63.3361   90.2358   14.6435 C.3     1  UNL1        0.1568
     15 C          64.0312   91.2570   15.4944 C.ar    1  UNL1        0.1433
     16 N          63.7744   91.7432   16.8899 N.ar    1  UNL1       -0.0506
     17 O          64.8046   92.7840   17.2151 O.2     1  UNL1       -0.2421
     18 N          65.6979   92.9409   16.0205 N.ar    1  UNL1       -0.0529
     19 C          65.2200   91.9972   14.9570 C.ar    1  UNL1        0.1190
     20 C          65.7137   91.7162   13.5687 C.3     1  UNL1        0.0508
     21 C          65.0186   90.6950   12.7178 C.3     1  UNL1        0.0115
     22 C          63.8299   89.9548   13.2551 C.3     1  UNL1        0.0582
     23 H          61.9620   89.7943   16.0849 H       1  UNL1        0.2109
@<TRIPOS>BOND
     1    14    13    1
     2    14    15    1
     3    15    16   ar
     4    16    17   ar
     5    17    18   ar
     6    18    19   ar
     7    19    20    1
     8    20    21    1
     9    22    21    1
    10    22     1    1
    11     1     2    1
    12     2     3   ar
    13     3     4   ar
    14     4     5   ar
    15     5     6   ar
    16     6     7   ar
    17     7     8    1
    18     8     9   ar
    19     9    10   ar
    20    10    11   ar
    21    11    12   ar
    22    22    14    1
    23     1    12    1
    24    19    15   ar
    25     7     2   ar
    26    12     8   ar
    27    13    23    1
@<TRIPOS>MOLECULE
*****
 23 27 0 0 0
SMALL
GASTEIGER

@<TRIPOS>ATOM
      1 C          62.0693   86.9876   11.0213 C.3     1  UNL1        0.1121
      2 C          62.6033   88.2948   11.5271 C.ar    1  UNL1       -0.0002
      3 C          63.5519   88.6283   12.6401 C.ar    1  UNL1       -0.0024
      4 C          63.9088   90.0585   12.9181 C.ar    1  UNL1       -0.0003
      5 C          63.3171   91.1551   12.0831 C.ar    1  UNL1        0.0000
      6 C          62.3685   90.8216   10.9700 C.ar    1  UNL1        0.0012
      7 C          62.0116   89.3915   10.6920 C.ar    1  UNL1        0.0152
      8 C          61.1119   88.7619    9.6702 C.ar    1  UNL1        0.0804
      9 C          60.1901   89.0506    8.5225 C.ar    1  UNL1        0.1177
     10 N          59.6561   87.7433    8.0168 N.ar    1  UNL1       -0.2223
     11 C          60.2478   86.6466    8.8518 C.ar    1  UNL1        0.1788
     12 N          61.1475   87.2762    9.8737 N.ar    1  UNL1       -0.3069
     13 O          63.0905   84.8418    9.1901 O.3     1  UNL1       -0.3783
     14 C          62.9097   84.5570   10.6517 C.3     1  UNL1        0.1568
     15 C          63.2396   83.1994   11.1977 C.ar    1  UNL1        0.1433
     16 N          63.7569   81.9529   10.5431 N.ar    1  UNL1       -0.0506
     17 O          63.8959   80.8977   11.6001 O.2     1  UNL1       -0.2421
     18 N          63.4644   81.4922   12.9079 N.ar    1  UNL1       -0.0529
     19 C          63.0588   82.9147   12.6592 C.ar    1  UNL1        0.1190
     20 C          62.5482   83.9875   13.5748 C.3     1  UNL1        0.0508
     21 C          62.2184   85.3451   13.0288 C.3     1  UNL1        0.0115
     22 C          62.3991   85.6299   11.5673 C.3     1  UNL1        0.0582
     23 H          63.4253   84.0477    8.7449 H       1  UNL1        0.2109
@<TRIPOS>BOND
     1    14    13    1
     2    14    15    1
     3    15    16   ar
     4    16    17   ar
     5    17    18   ar
     6    18    19   ar
     7    19    20    1
     8    20    21    1
     9    22    21    1
    10    22     1    1
    11     1     2    1
    12     2     3   ar
    13     3     4   ar
    14     4     5   ar
    15     5     6   ar
    16     6     7   ar
    17     7     8    1
    18     8     9   ar
    19     9    10   ar
    20    10    11   ar
    21    11    12   ar
    22    22    14    1
    23     1    12    1
    24    19    15   ar
    25     7     2   ar
    26    12     8   ar
    27    13    23    1
@<TRIPOS>MOLECULE
*****
 23 27 0 0 0
SMALL
GASTEIGER

@<TRIPOS>ATOM
      1 C          62.7792   88.8080   12.1716 C.3     1  UNL1        0.1121
      2 C          62.8957   87.3153   12.2631 C.ar    1  UNL1       -0.0002
      3 C          63.7266   86.4252   13.1389 C.ar    1  UNL1       -0.0024
      4 C          63.6299   84.9348   13.0004 C.ar    1  UNL1       -0.0003
      5 C          62.7021   84.3344   11.9861 C.ar    1  UNL1        0.0000
      6 C          61.8712   85.2245   11.1102 C.ar    1  UNL1        0.0012
      7 C          61.9680   86.7150   11.2487 C.ar    1  UNL1        0.0152
      8 C          61.2782   87.8366   10.5303 C.ar    1  UNL1        0.0804
      9 C          60.2784   88.1588    9.4594 C.ar    1  UNL1        0.1177
     10 N          60.1620   89.6516    9.3680 N.ar    1  UNL1       -0.2223
     11 C          61.0897   90.2519   10.3824 C.ar    1  UNL1        0.1788
     12 N          61.7795   89.1302   11.1007 N.ar    1  UNL1       -0.3069
     13 O          64.0662   91.1853   10.8707 O.3     1  UNL1       -0.3783
     14 C          64.1741   90.9923   12.3543 C.3     1  UNL1        0.1568
     15 C          64.9254   91.9879   13.1875 C.ar    1  UNL1        0.1433
     16 N          65.6580   93.2469   12.8293 N.ar    1  UNL1       -0.0506
     17 O          66.2186   93.8321   14.0916 O.2     1  UNL1       -0.2421
     18 N          65.8325   92.9347   15.2298 N.ar    1  UNL1       -0.0529
     19 C          65.0333   91.7950   14.6711 C.ar    1  UNL1        0.1190
     20 C          64.3898   90.6063   15.3215 C.3     1  UNL1        0.0508
     21 C          63.6385   89.6107   14.4883 C.3     1  UNL1        0.0115
     22 C          63.5306   89.8036   13.0048 C.3     1  UNL1        0.0582
     23 H          64.5339   91.9958   10.6152 H       1  UNL1        0.2109
@<TRIPOS>BOND
     1    14    13    1
     2    14    15    1
     3    15    16   ar
     4    16    17   ar
     5    17    18   ar
     6    18    19   ar
     7    19    20    1
     8    20    21    1
     9    22    21    1
    10    22     1    1
    11     1     2    1
    12     2     3   ar
    13     3     4   ar
    14     4     5   ar
    15     5     6   ar
    16     6     7   ar
    17     7     8    1
    18     8     9   ar
    19     9    10   ar
    20    10    11   ar
    21    11    12   ar
    22    22    14    1
    23     1    12    1
    24    19    15   ar
    25     7     2   ar
    26    12     8   ar
    27    13    23    1
@<TRIPOS>MOLECULE
*****
 23 27 0 0 0
SMALL
GASTEIGER

@<TRIPOS>ATOM
      1 C          62.7124   86.3228   12.3159 C.3     1  UNL1        0.1121
      2 C          62.0300   87.0282   11.1816 C.ar    1  UNL1       -0.0002
      3 C          61.1563   86.5288   10.0692 C.ar    1  UNL1       -0.0024
      4 C          60.6055   87.4907    9.0586 C.ar    1  UNL1       -0.0003
      5 C          60.9284   88.9520    9.1603 C.ar    1  UNL1        0.0000
      6 C          61.8020   89.4514   10.2726 C.ar    1  UNL1        0.0012
      7 C          62.3528   88.4896   11.2832 C.ar    1  UNL1        0.0152
      8 C          63.2347   88.6872   12.4804 C.ar    1  UNL1        0.0804
      9 C          63.9794   89.7125   13.2831 C.ar    1  UNL1        0.1177
     10 N          64.6618   89.0070   14.4174 N.ar    1  UNL1       -0.2223
     11 C          64.3389   87.5457   14.3157 C.ar    1  UNL1        0.1788
     12 N          63.4570   87.3480   13.1186 N.ar    1  UNL1       -0.3069
     13 O          63.2961   84.3545   10.1283 O.3     1  UNL1       -0.3783
     14 C          62.9513   83.8663   11.5040 C.3     1  UNL1        0.1568
     15 C          62.8984   82.3940   11.7861 C.ar    1  UNL1        0.1433
     16 N          63.1361   81.1961   10.9152 N.ar    1  UNL1       -0.0506
     17 O          62.9383   79.9675   11.7528 O.2     1  UNL1       -0.2421
     18 N          62.5783   80.4062   13.1412 N.ar    1  UNL1       -0.0529
     19 C          62.5536   81.9058   13.1619 C.ar    1  UNL1        0.1190
     20 C          62.2618   82.8899   14.2556 C.3     1  UNL1        0.0508
     21 C          62.3147   84.3622   13.9736 C.3     1  UNL1        0.0115
     22 C          62.6595   84.8505   12.5979 C.3     1  UNL1        0.0582
     23 H          63.4545   83.5951    9.5460 H       1  UNL1        0.2109
@<TRIPOS>BOND
     1    14    13    1
     2    14    15    1
     3    15    16   ar
     4    16    17   ar
     5    17    18   ar
     6    18    19   ar
     7    19    20    1
     8    20    21    1
     9    22    21    1
    10    22     1    1
    11     1     2    1
    12     2     3   ar
    13     3     4   ar
    14     4     5   ar
    15     5     6   ar
    16     6     7   ar
    17     7     8    1
    18     8     9   ar
    19     9    10   ar
    20    10    11   ar
    21    11    12   ar
    22    22    14    1
    23     1    12    1
    24    19    15   ar
    25     7     2   ar
    26    12     8   ar
    27    13    23    1
