@<TRIPOS>MOLECULE
*****
 58 65 0 0 0
SMALL
GASTEIGER

@<TRIPOS>ATOM
      1 C          60.9405   95.0444   -2.1440 C.ar    1  UNL1        0.0560
      2 C          62.4327   94.8945   -2.1163 C.ar    1  UNL1        0.0445
      3 C          63.2675   95.4983   -3.2065 C.ar    1  UNL1        0.1729
      4 C          62.6101   96.2521   -4.3244 C.ar    1  UNL1        0.1736
      5 C          61.1180   96.4020   -4.3521 C.ar    1  UNL1        0.0548
      6 C          60.2831   95.7982   -3.2619 C.ar    1  UNL1        0.0569
      7 N          59.4420   93.3616    1.0163 N.ar    1  UNL1       -0.1285
      8 N          58.1997   93.6612    0.2309 N.ar    1  UNL1       -0.0406
      9 N          58.6098   94.3281   -1.0485 N.ar    1  UNL1       -0.1074
     10 C          60.1056   94.4406   -1.0539 C.ar    1  UNL1        0.2075
     11 N          60.6199   93.8432    0.2223 N.ar    1  UNL1       -0.1253
     12 C          59.6063   91.3676    5.0471 C.ar    1  UNL1       -0.0207
     13 C          58.2808   91.6855    4.4211 C.ar    1  UNL1       -0.0026
     14 C          58.2260   92.3502    3.0775 C.ar    1  UNL1        0.0206
     15 C          59.4968   92.6969    2.3599 C.ar    1  UNL1        0.1045
     16 C          60.8223   92.3790    2.9859 C.ar    1  UNL1        0.0206
     17 C          60.8771   91.7143    4.3295 C.ar    1  UNL1       -0.0026
     18 C          59.6610   90.7029    6.3907 C.3     1  UNL1        0.0437
     19 C          59.1291   89.3108    6.5610 C.3     1  UNL1        0.0771
     20 C          62.5054   86.1517   11.6474 C.ar    1  UNL1        0.1721
     21 C          61.6571   85.5994   10.5404 C.ar    1  UNL1        0.0356
     22 C          61.0251   86.5273    9.5455 C.ar    1  UNL1       -0.0202
     23 C          61.2414   88.0074    9.6577 C.ar    1  UNL1       -0.0068
     24 C          62.0897   88.5596   10.7647 C.ar    1  UNL1        0.0368
     25 C          62.7217   87.6318   11.7595 C.ar    1  UNL1        0.1721
     26 C          60.6094   88.9352    8.6629 C.3     1  UNL1        0.0990
     27 N          59.7612   88.3830    7.5559 N.3     1  UNL1       -0.2683
     28 C          59.5448   86.9029    7.4437 C.3     1  UNL1        0.0771
     29 C          60.1768   85.9750    8.4386 C.3     1  UNL1        0.0435
     30 C          63.4184   83.7993   12.2659 C.3     1  UNL1        0.2526
     31 O          63.1374   85.2238   12.6423 O.3     1  UNL1       -0.4684
     32 O          63.5700   88.1840   12.8666 O.3     1  UNL1       -0.4684
     33 C          63.5567   89.6551   13.1591 C.3     1  UNL1        0.2526
     34 N          58.7908   95.9482   -3.2897 N.am    1  UNL1       -0.2777
     35 C          58.0161   95.5175   -4.4998 C.2     1  UNL1        0.2843
     36 O          58.7337   94.9369   -5.6822 O.2     1  UNL1       -0.2665
     37 H          58.3199   96.3293   -2.5136 H       1  UNL1        0.1553
     38 C          56.5239   95.6675   -4.5276 C.ar    1  UNL1        0.2017
     39 C          55.8103   95.8251   -5.8375 C.ar    1  UNL1        0.0843
     40 C          54.3181   95.9750   -5.8653 C.ar    1  UNL1        0.2018
     41 O          53.6044   96.1327   -7.1753 O.2     1  UNL1       -0.2864
     42 C          53.5395   95.9674   -4.5832 C.ar    1  UNL1        0.0735
     43 C          52.0472   96.1173   -4.6110 C.ar    1  UNL1        0.0062
     44 C          51.2687   96.1096   -3.3289 C.ar    1  UNL1        0.0003
     45 C          51.9823   95.9520   -2.0190 C.ar    1  UNL1        0.0031
     46 C          53.4746   95.8021   -1.9912 C.ar    1  UNL1        0.0376
     47 C          54.2532   95.8097   -3.2733 C.ar    1  UNL1        0.1485
     48 O          55.7453   95.6598   -3.2455 O.2     1  UNL1       -0.4487
     49 O          63.4450   96.8559   -5.4145 O.3     1  UNL1       -0.4683
     50 C          63.1132   96.5832   -6.8516 C.3     1  UNL1        0.2526
     51 O          64.7597   95.3483   -3.1787 O.3     1  UNL1       -0.4675
     52 C          65.5639   96.0437   -2.1205 C.3     1  UNL1        0.2337
     53 C          65.3086   95.7518   -0.6715 C.ar    1  UNL1        0.0403
     54 C          64.9742   94.3562   -0.2352 C.ar    1  UNL1        0.0025
     55 C          64.7189   94.0643    1.2138 C.ar    1  UNL1        0.0205
     56 C          64.7981   95.1679    2.2265 C.ar    1  UNL1        0.0989
     57 N          65.1325   96.5636    1.7902 N.ar    1  UNL1       -0.2425
     58 C          65.3878   96.8555    0.3412 C.ar    1  UNL1        0.0982
@<TRIPOS>BOND
     1    30    31    1
     2    31    20    1
     3    20    21   ar
     4    21    22   ar
     5    22    23   ar
     6    23    24   ar
     7    24    25   ar
     8    25    32    1
     9    32    33    1
    10    23    26    1
    11    26    27    1
    12    27    19    1
    13    19    18    1
    14    18    12    1
    15    12    13   ar
    16    13    14   ar
    17    14    15   ar
    18    15     7    1
    19     7     8   ar
    20     8     9   ar
    21     9    10   ar
    22    10     1    1
    23     1     2   ar
    24     2     3   ar
    25     3    51    1
    26    51    52    1
    27    52    53    1
    28    53    54   ar
    29    54    55   ar
    30    55    56   ar
    31    56    57   ar
    32    57    58   ar
    33     3     4   ar
    34     4    49    1
    35    49    50    1
    36     4     5   ar
    37     5     6   ar
    38     6    34    1
    39    34    35   am
    40    35    36    2
    41    35    38    1
    42    38    39   ar
    43    39    40   ar
    44    40    41    2
    45    40    42   ar
    46    42    43   ar
    47    43    44   ar
    48    44    45   ar
    49    45    46   ar
    50    46    47   ar
    51    47    48   ar
    52    10    11   ar
    53    15    16   ar
    54    16    17   ar
    55    27    28    1
    56    28    29    1
    57    25    20   ar
    58    17    12   ar
    59    29    22    1
    60    11     7   ar
    61     6     1   ar
    62    48    38   ar
    63    58    53   ar
    64    47    42   ar
    65    34    37    1
@<TRIPOS>MOLECULE
*****
 58 65 0 0 0
SMALL
GASTEIGER

@<TRIPOS>ATOM
      1 C          60.7614   94.7705   -1.5136 C.ar    1  UNL1        0.0560
      2 C          62.2545   94.6362   -1.5623 C.ar    1  UNL1        0.0445
      3 C          63.0354   95.3312   -2.6380 C.ar    1  UNL1        0.1729
      4 C          62.3231   96.1607   -3.6650 C.ar    1  UNL1        0.1736
      5 C          60.8300   96.2950   -3.6162 C.ar    1  UNL1        0.0548
      6 C          60.0491   95.5999   -2.5406 C.ar    1  UNL1        0.0569
      7 N          59.4057   92.9269    1.6216 N.ar    1  UNL1       -0.1285
      8 N          58.1520   93.0845    0.8133 N.ar    1  UNL1       -0.0406
      9 N          58.5072   93.7943   -0.4595 N.ar    1  UNL1       -0.1074
     10 C          59.9806   94.0754   -0.4379 C.ar    1  UNL1        0.2075
     11 N          60.5358   93.5393    0.8483 N.ar    1  UNL1       -0.1253
     12 C          59.7212   90.9620    5.6576 C.ar    1  UNL1       -0.0207
     13 C          58.3842   91.4048    5.1414 C.ar    1  UNL1       -0.0026
     14 C          58.2791   92.0598    3.7960 C.ar    1  UNL1        0.0206
     15 C          59.5109   92.2719    2.9669 C.ar    1  UNL1        0.1045
     16 C          60.8479   91.8291    3.4830 C.ar    1  UNL1        0.0206
     17 C          60.9530   91.1742    4.8283 C.ar    1  UNL1       -0.0026
     18 C          59.8263   90.3070    7.0029 C.3     1  UNL1        0.0437
     19 C          59.6495   88.8229    7.1304 C.3     1  UNL1        0.0771
     20 C          62.8712   84.7514   11.6352 C.ar    1  UNL1        0.1721
     21 C          61.9570   85.9214   11.8481 C.ar    1  UNL1        0.0356
     22 C          61.3801   86.6468   10.6687 C.ar    1  UNL1       -0.0202
     23 C          61.7175   86.2022    9.2764 C.ar    1  UNL1       -0.0068
     24 C          62.6318   85.0322    9.0635 C.ar    1  UNL1        0.0368
     25 C          63.2087   84.3069   10.2429 C.ar    1  UNL1        0.1721
     26 C          61.1407   86.9275    8.0970 C.3     1  UNL1        0.0990
     27 N          60.2264   88.0975    8.3098 N.3     1  UNL1       -0.2683
     28 C          59.8890   88.5421    9.7021 C.3     1  UNL1        0.0771
     29 C          60.4659   87.8167   10.8816 C.3     1  UNL1        0.0435
     30 C          63.7402   84.7706   14.0837 C.3     1  UNL1        0.2526
     31 O          63.4481   84.0260   12.8147 O.3     1  UNL1       -0.4684
     32 O          64.1230   83.1369   10.0301 O.3     1  UNL1       -0.4684
     33 C          63.6499   81.7485   10.3443 C.3     1  UNL1        0.2526
     34 N          58.5559   95.7342   -2.4918 N.am    1  UNL1       -0.2777
     35 C          57.7572   95.6919   -3.7609 C.2     1  UNL1        0.2843
     36 O          58.4518   95.5152   -5.0786 O.2     1  UNL1       -0.2665
     37 H          58.1000   95.8501   -1.6270 H       1  UNL1        0.1553
     38 C          56.2641   95.8262   -3.7122 C.ar    1  UNL1        0.2017
     39 C          55.5548   95.8378   -2.3906 C.ar    1  UNL1        0.0843
     40 C          54.0617   95.9721   -2.3419 C.ar    1  UNL1        0.2018
     41 O          53.3523   95.9837   -1.0201 O.2     1  UNL1       -0.2864
     42 C          53.2778   96.0948   -3.6148 C.ar    1  UNL1        0.0735
     43 C          51.7845   96.2291   -3.5661 C.ar    1  UNL1        0.0062
     44 C          51.0006   96.3518   -4.8391 C.ar    1  UNL1        0.0003
     45 C          51.7099   96.3402   -6.1608 C.ar    1  UNL1        0.0031
     46 C          53.2032   96.2059   -6.2095 C.ar    1  UNL1        0.0376
     47 C          53.9871   96.0832   -4.9365 C.ar    1  UNL1        0.1485
     48 O          55.4802   95.9489   -4.9852 O.2     1  UNL1       -0.4487
     49 O          63.1040   96.8558   -4.7406 O.3     1  UNL1       -0.4683
     50 C          63.5983   96.0827   -5.9271 C.3     1  UNL1        0.2526
     51 O          64.5286   95.1969   -2.6866 O.3     1  UNL1       -0.4675
     52 C          65.3528   95.5482   -1.4836 C.3     1  UNL1        0.2337
     53 C          64.9198   95.0973   -0.1200 C.ar    1  UNL1        0.0403
     54 C          64.8111   93.6330    0.1862 C.ar    1  UNL1        0.0025
     55 C          64.3780   93.1820    1.5497 C.ar    1  UNL1        0.0205
     56 C          64.0538   94.1954    2.6069 C.ar    1  UNL1        0.0989
     57 N          64.1626   95.6598    2.3007 N.ar    1  UNL1       -0.2425
     58 C          64.5956   96.1107    0.9372 C.ar    1  UNL1        0.0982
@<TRIPOS>BOND
     1    30    31    1
     2    31    20    1
     3    20    21   ar
     4    21    22   ar
     5    22    23   ar
     6    23    24   ar
     7    24    25   ar
     8    25    32    1
     9    32    33    1
    10    23    26    1
    11    26    27    1
    12    27    19    1
    13    19    18    1
    14    18    12    1
    15    12    13   ar
    16    13    14   ar
    17    14    15   ar
    18    15     7    1
    19     7     8   ar
    20     8     9   ar
    21     9    10   ar
    22    10     1    1
    23     1     2   ar
    24     2     3   ar
    25     3    51    1
    26    51    52    1
    27    52    53    1
    28    53    54   ar
    29    54    55   ar
    30    55    56   ar
    31    56    57   ar
    32    57    58   ar
    33     3     4   ar
    34     4    49    1
    35    49    50    1
    36     4     5   ar
    37     5     6   ar
    38     6    34    1
    39    34    35   am
    40    35    36    2
    41    35    38    1
    42    38    39   ar
    43    39    40   ar
    44    40    41    2
    45    40    42   ar
    46    42    43   ar
    47    43    44   ar
    48    44    45   ar
    49    45    46   ar
    50    46    47   ar
    51    47    48   ar
    52    10    11   ar
    53    15    16   ar
    54    16    17   ar
    55    27    28    1
    56    28    29    1
    57    25    20   ar
    58    17    12   ar
    59    29    22    1
    60    11     7   ar
    61     6     1   ar
    62    48    38   ar
    63    58    53   ar
    64    47    42   ar
    65    34    37    1
@<TRIPOS>MOLECULE
*****
 58 65 0 0 0
SMALL
GASTEIGER

@<TRIPOS>ATOM
      1 C          62.7498   85.7025   12.8336 C.ar    1  UNL1        0.0560
      2 C          62.3723   84.4351   13.5413 C.ar    1  UNL1        0.0445
      3 C          62.7541   84.2361   14.9782 C.ar    1  UNL1        0.1729
      4 C          63.5136   85.3045   15.7073 C.ar    1  UNL1        0.1736
      5 C          63.8911   86.5720   14.9996 C.ar    1  UNL1        0.0548
      6 C          63.5093   86.7710   13.5627 C.ar    1  UNL1        0.0569
      7 N          61.3767   86.8105    9.3763 N.ar    1  UNL1       -0.1285
      8 N          62.1839   85.6052    8.9948 N.ar    1  UNL1       -0.0406
      9 N          62.7966   85.0434   10.2435 N.ar    1  UNL1       -0.1074
     10 C          62.3679   85.9016   11.3967 C.ar    1  UNL1        0.2075
     11 N          61.4904   86.9936   10.8608 N.ar    1  UNL1       -0.1253
     12 C          59.0264   89.4189    6.5617 C.ar    1  UNL1       -0.0207
     13 C          59.8101   90.0385    7.6806 C.ar    1  UNL1       -0.0026
     14 C          60.5936   89.1690    8.6188 C.ar    1  UNL1        0.0206
     15 C          60.5933   87.6799    8.4381 C.ar    1  UNL1        0.1045
     16 C          59.8095   87.0603    7.3193 C.ar    1  UNL1        0.0206
     17 C          59.0261   87.9298    6.3811 C.ar    1  UNL1       -0.0026
     18 C          58.2430   90.2884    5.6235 C.3     1  UNL1        0.0437
     19 C          58.6947   91.6919    5.3480 C.3     1  UNL1        0.0771
     20 C          63.0192   93.6223    0.3658 C.ar    1  UNL1        0.1721
     21 C          63.2120   92.6941    1.5282 C.ar    1  UNL1        0.0356
     22 C          62.0826   92.4436    2.4832 C.ar    1  UNL1       -0.0202
     23 C          60.7606   93.1212    2.2756 C.ar    1  UNL1       -0.0068
     24 C          60.5679   94.0493    1.1131 C.ar    1  UNL1        0.0368
     25 C          61.6972   94.2999    0.1582 C.ar    1  UNL1        0.1721
     26 C          59.6313   92.8706    3.2305 C.3     1  UNL1        0.0990
     27 N          59.8240   91.9425    4.3930 N.3     1  UNL1       -0.2683
     28 C          61.1461   91.2649    4.6006 C.3     1  UNL1        0.0771
     29 C          62.2754   91.5154    3.6457 C.3     1  UNL1        0.0435
     30 C          64.9844   95.1110   -0.4539 C.3     1  UNL1        0.2526
     31 O          64.1486   93.8728   -0.5892 O.3     1  UNL1       -0.4684
     32 O          61.5045   95.2280   -1.0044 O.3     1  UNL1       -0.4684
     33 C          60.8595   94.7292   -2.2634 C.3     1  UNL1        0.2526
     34 N          63.8868   88.0386   12.8549 N.am    1  UNL1       -0.2777
     35 C          63.8701   89.3438   13.5940 C.2     1  UNL1        0.2843
     36 O          63.4758   89.3815   15.0407 O.2     1  UNL1       -0.2665
     37 H          64.1456   88.0138   11.9054 H       1  UNL1        0.1553
     38 C          64.2476   90.6113   12.8863 C.ar    1  UNL1        0.2017
     39 C          63.7439   90.8737   11.4980 C.ar    1  UNL1        0.0843
     40 C          64.1214   92.1412   10.7903 C.ar    1  UNL1        0.2018
     41 O          63.6177   92.4036    9.4019 O.2     1  UNL1       -0.2864
     42 C          65.0027   93.1463   11.4709 C.ar    1  UNL1        0.0735
     43 C          65.3802   94.4138   10.7631 C.ar    1  UNL1        0.0062
     44 C          66.2615   95.4189   11.4437 C.ar    1  UNL1        0.0003
     45 C          66.7652   95.1565   12.8320 C.ar    1  UNL1        0.0031
     46 C          66.3876   93.8889   13.5397 C.ar    1  UNL1        0.0376
     47 C          65.5064   92.8838   12.8592 C.ar    1  UNL1        0.1485
     48 O          65.1289   91.6164   13.5669 O.2     1  UNL1       -0.4487
     49 O          63.8955   85.1055   17.1441 O.3     1  UNL1       -0.4683
     50 C          63.2606   85.9458   18.2122 C.3     1  UNL1        0.2526
     51 O          62.3766   82.9685   15.6858 O.3     1  UNL1       -0.4675
     52 C          62.4963   81.6508   14.9793 C.3     1  UNL1        0.2337
     53 C          62.9910   81.6008   13.5640 C.ar    1  UNL1        0.0403
     54 C          62.1850   80.8981   12.5122 C.ar    1  UNL1        0.0025
     55 C          62.6796   80.8481   11.0970 C.ar    1  UNL1        0.0205
     56 C          63.9802   81.5009   10.7336 C.ar    1  UNL1        0.0989
     57 N          64.7863   82.2037   11.7855 N.ar    1  UNL1       -0.2425
     58 C          64.2916   82.2537   13.2006 C.ar    1  UNL1        0.0982
@<TRIPOS>BOND
     1    30    31    1
     2    31    20    1
     3    20    21   ar
     4    21    22   ar
     5    22    23   ar
     6    23    24   ar
     7    24    25   ar
     8    25    32    1
     9    32    33    1
    10    23    26    1
    11    26    27    1
    12    27    19    1
    13    19    18    1
    14    18    12    1
    15    12    13   ar
    16    13    14   ar
    17    14    15   ar
    18    15     7    1
    19     7     8   ar
    20     8     9   ar
    21     9    10   ar
    22    10     1    1
    23     1     2   ar
    24     2     3   ar
    25     3    51    1
    26    51    52    1
    27    52    53    1
    28    53    54   ar
    29    54    55   ar
    30    55    56   ar
    31    56    57   ar
    32    57    58   ar
    33     3     4   ar
    34     4    49    1
    35    49    50    1
    36     4     5   ar
    37     5     6   ar
    38     6    34    1
    39    34    35   am
    40    35    36    2
    41    35    38    1
    42    38    39   ar
    43    39    40   ar
    44    40    41    2
    45    40    42   ar
    46    42    43   ar
    47    43    44   ar
    48    44    45   ar
    49    45    46   ar
    50    46    47   ar
    51    47    48   ar
    52    10    11   ar
    53    15    16   ar
    54    16    17   ar
    55    27    28    1
    56    28    29    1
    57    25    20   ar
    58    17    12   ar
    59    29    22    1
    60    11     7   ar
    61     6     1   ar
    62    48    38   ar
    63    58    53   ar
    64    47    42   ar
    65    34    37    1
@<TRIPOS>MOLECULE
*****
 58 65 0 0 0
SMALL
GASTEIGER

@<TRIPOS>ATOM
      1 C          63.0912   89.5276   11.9441 C.ar    1  UNL1        0.0560
      2 C          63.4713   90.9581   12.1865 C.ar    1  UNL1        0.0445
      3 C          64.3076   91.3204   13.3778 C.ar    1  UNL1        0.1729
      4 C          64.7640   90.2520   14.3267 C.ar    1  UNL1        0.1736
      5 C          64.3839   88.8215   14.0843 C.ar    1  UNL1        0.0548
      6 C          63.5475   88.4592   12.8930 C.ar    1  UNL1        0.0569
      7 N          60.9949   89.3193    8.6841 N.ar    1  UNL1       -0.1285
      8 N          60.9407   87.8962    9.1549 N.ar    1  UNL1       -0.0406
      9 N          61.7194   87.8009   10.4334 N.ar    1  UNL1       -0.1074
     10 C          62.2548   89.1653   10.7528 C.ar    1  UNL1        0.2075
     11 N          61.8071   90.1036    9.6716 N.ar    1  UNL1       -0.1253
     12 C          59.0605   90.9495    4.9624 C.ar    1  UNL1       -0.0207
     13 C          60.5325   91.1338    5.1850 C.ar    1  UNL1       -0.0026
     14 C          61.1772   90.5903    6.4256 C.ar    1  UNL1        0.0206
     15 C          60.3501   89.8627    7.4436 C.ar    1  UNL1        0.1045
     16 C          58.8782   89.6784    7.2210 C.ar    1  UNL1        0.0206
     17 C          58.2334   90.2218    5.9805 C.ar    1  UNL1       -0.0026
     18 C          58.4158   91.4929    3.7219 C.3     1  UNL1        0.0437
     19 C          58.8220   92.8362    3.1923 C.3     1  UNL1        0.0771
     20 C          63.5291   93.8183   -1.7197 C.ar    1  UNL1        0.1721
     21 C          62.1563   93.2170   -1.7813 C.ar    1  UNL1        0.0356
     22 C          61.3227   93.1218   -0.5379 C.ar    1  UNL1       -0.0202
     23 C          61.8619   93.6280    0.7671 C.ar    1  UNL1       -0.0068
     24 C          63.2348   94.2293    0.8287 C.ar    1  UNL1        0.0368
     25 C          64.0683   94.3245   -0.4147 C.ar    1  UNL1        0.1721
     26 C          61.0284   93.5328    2.0105 C.3     1  UNL1        0.0990
     27 N          59.6556   92.9314    1.9489 N.3     1  UNL1       -0.2683
     28 C          59.1164   92.4253    0.6439 C.3     1  UNL1        0.0771
     29 C          59.9499   92.5204   -0.5995 C.3     1  UNL1        0.0435
     30 C          64.1616   92.9304   -4.0780 C.3     1  UNL1        0.2526
     31 O          64.3627   93.9135   -2.9632 O.3     1  UNL1       -0.4684
     32 O          65.4412   94.9259   -0.3532 O.3     1  UNL1       -0.4684
     33 C          65.6087   96.3809   -0.0294 C.3     1  UNL1        0.2526
     34 N          63.1674   87.0285   12.6505 N.am    1  UNL1       -0.2777
     35 C          63.7922   85.9375   13.4687 C.2     1  UNL1        0.2843
     36 O          64.7970   86.2771   14.5293 O.2     1  UNL1       -0.2665
     37 H          62.5079   86.8055   11.9544 H       1  UNL1        0.1553
     38 C          63.4122   84.5068   13.2263 C.ar    1  UNL1        0.2017
     39 C          62.7116   83.7251   14.2977 C.ar    1  UNL1        0.0843
     40 C          62.3315   82.2945   14.0554 C.ar    1  UNL1        0.2018
     41 O          61.6309   81.5126   15.1268 O.2     1  UNL1       -0.2864
     42 C          62.6521   81.6455   12.7415 C.ar    1  UNL1        0.0735
     43 C          62.2720   80.2148   12.4991 C.ar    1  UNL1        0.0062
     44 C          62.5926   79.5659   11.1853 C.ar    1  UNL1        0.0003
     45 C          63.2933   80.3476   10.1139 C.ar    1  UNL1        0.0031
     46 C          63.6733   81.7784   10.3563 C.ar    1  UNL1        0.0376
     47 C          63.3527   82.4273   11.6701 C.ar    1  UNL1        0.1485
     48 O          63.7328   83.8579   11.9124 O.2     1  UNL1       -0.4487
     49 O          65.6003   90.6143   15.5180 O.3     1  UNL1       -0.4683
     50 C          65.1458   91.6959   16.4525 C.3     1  UNL1        0.2526
     51 O          64.6877   92.7511   13.6203 O.3     1  UNL1       -0.4675
     52 C          66.0886   93.2118   13.3460 C.3     1  UNL1        0.2337
     53 C          66.5196   93.5058   11.9395 C.ar    1  UNL1        0.0403
     54 C          67.1944   92.4429   11.1243 C.ar    1  UNL1        0.0025
     55 C          67.6255   92.7368    9.7180 C.ar    1  UNL1        0.0205
     56 C          67.3816   94.0936    9.1269 C.ar    1  UNL1        0.0989
     57 N          66.7067   95.1566    9.9422 N.ar    1  UNL1       -0.2425
     58 C          66.2758   94.8626   11.3485 C.ar    1  UNL1        0.0982
@<TRIPOS>BOND
     1    30    31    1
     2    31    20    1
     3    20    21   ar
     4    21    22   ar
     5    22    23   ar
     6    23    24   ar
     7    24    25   ar
     8    25    32    1
     9    32    33    1
    10    23    26    1
    11    26    27    1
    12    27    19    1
    13    19    18    1
    14    18    12    1
    15    12    13   ar
    16    13    14   ar
    17    14    15   ar
    18    15     7    1
    19     7     8   ar
    20     8     9   ar
    21     9    10   ar
    22    10     1    1
    23     1     2   ar
    24     2     3   ar
    25     3    51    1
    26    51    52    1
    27    52    53    1
    28    53    54   ar
    29    54    55   ar
    30    55    56   ar
    31    56    57   ar
    32    57    58   ar
    33     3     4   ar
    34     4    49    1
    35    49    50    1
    36     4     5   ar
    37     5     6   ar
    38     6    34    1
    39    34    35   am
    40    35    36    2
    41    35    38    1
    42    38    39   ar
    43    39    40   ar
    44    40    41    2
    45    40    42   ar
    46    42    43   ar
    47    43    44   ar
    48    44    45   ar
    49    45    46   ar
    50    46    47   ar
    51    47    48   ar
    52    10    11   ar
    53    15    16   ar
    54    16    17   ar
    55    27    28    1
    56    28    29    1
    57    25    20   ar
    58    17    12   ar
    59    29    22    1
    60    11     7   ar
    61     6     1   ar
    62    48    38   ar
    63    58    53   ar
    64    47    42   ar
    65    34    37    1
@<TRIPOS>MOLECULE
*****
 58 65 0 0 0
SMALL
GASTEIGER

@<TRIPOS>ATOM
      1 C          63.1221   89.6395   12.0068 C.ar    1  UNL1        0.0560
      2 C          63.5022   91.0709   12.2443 C.ar    1  UNL1        0.0445
      3 C          64.4093   91.4268   13.3846 C.ar    1  UNL1        0.1729
      4 C          64.9364   90.3511   14.2875 C.ar    1  UNL1        0.1736
      5 C          64.5563   88.9197   14.0500 C.ar    1  UNL1        0.0548
      6 C          63.6491   88.5639   12.9097 C.ar    1  UNL1        0.0569
      7 N          60.9245   89.4169    8.8152 N.ar    1  UNL1       -0.1285
      8 N          60.7134   88.0553    9.4079 N.ar    1  UNL1       -0.0406
      9 N          61.5109   87.9729   10.6757 N.ar    1  UNL1       -0.1074
     10 C          62.2149   89.2837   10.8664 C.ar    1  UNL1        0.2075
     11 N          61.8525   90.1761    9.7165 N.ar    1  UNL1       -0.1253
     12 C          59.0949   90.9542    5.0021 C.ar    1  UNL1       -0.0207
     13 C          58.2376   90.2605    6.0189 C.ar    1  UNL1       -0.0026
     14 C          58.8475   89.7480    7.2899 C.ar    1  UNL1        0.0206
     15 C          60.3147   89.9293    7.5442 C.ar    1  UNL1        0.1045
     16 C          61.1719   90.6230    6.5274 C.ar    1  UNL1        0.0206
     17 C          60.5621   91.1354    5.2564 C.ar    1  UNL1       -0.0026
     18 C          58.4851   91.4666    3.7311 C.3     1  UNL1        0.0437
     19 C          58.8743   92.8155    3.2031 C.3     1  UNL1        0.0771
     20 C          61.8802   93.5698   -2.9325 C.ar    1  UNL1        0.1721
     21 C          62.4600   93.2409   -1.5888 C.ar    1  UNL1        0.0356
     22 C          61.5636   93.1346   -0.3908 C.ar    1  UNL1       -0.0202
     23 C          60.0874   93.3572   -0.5366 C.ar    1  UNL1       -0.0068
     24 C          59.5076   93.6861   -1.8804 C.ar    1  UNL1        0.0368
     25 C          60.4040   93.7924   -3.0783 C.ar    1  UNL1        0.1721
     26 C          59.1910   93.2508    0.6613 C.3     1  UNL1        0.0990
     27 N          59.7708   92.9219    2.0051 N.3     1  UNL1       -0.2683
     28 C          61.2470   92.6993    2.1508 C.3     1  UNL1        0.0771
     29 C          62.1434   92.8057    0.9529 C.3     1  UNL1        0.0435
     30 C          63.8250   92.6323   -4.3778 C.3     1  UNL1        0.2526
     31 O          62.7767   93.6762   -4.1306 O.3     1  UNL1       -0.4684
     32 O          59.8242   94.1214   -4.4221 O.3     1  UNL1       -0.4684
     33 C          58.3390   94.2516   -4.5866 C.3     1  UNL1        0.2526
     34 N          63.2690   87.1324   12.6722 N.am    1  UNL1       -0.2777
     35 C          63.8456   86.0500   13.5360 C.2     1  UNL1        0.2843
     36 O          64.8024   86.3992   14.6372 O.2     1  UNL1       -0.2665
     37 H          62.6411   86.9032   11.9494 H       1  UNL1        0.1553
     38 C          63.4656   84.6186   13.2985 C.ar    1  UNL1        0.2017
     39 C          62.7904   83.8321   14.3828 C.ar    1  UNL1        0.0843
     40 C          62.4103   82.4007   14.1454 C.ar    1  UNL1        0.2018
     41 O          61.7350   81.6142   15.2297 O.2     1  UNL1       -0.2864
     42 C          62.7054   81.7556   12.8237 C.ar    1  UNL1        0.0735
     43 C          62.3253   80.3241   12.5863 C.ar    1  UNL1        0.0062
     44 C          62.6204   79.6790   11.2647 C.ar    1  UNL1        0.0003
     45 C          63.2956   80.4654   10.1804 C.ar    1  UNL1        0.0031
     46 C          63.6757   81.8970   10.4178 C.ar    1  UNL1        0.0376
     47 C          63.3806   82.5421   11.7395 C.ar    1  UNL1        0.1485
     48 O          63.7607   83.9735   11.9769 O.2     1  UNL1       -0.4487
     49 O          65.8435   90.7070   15.4279 O.3     1  UNL1       -0.4683
     50 C          67.2439   91.1705   15.1558 C.3     1  UNL1        0.2526
     51 O          64.7894   92.8583   13.6221 O.3     1  UNL1       -0.4675
     52 C          66.1807   93.3261   13.3128 C.3     1  UNL1        0.2337
     53 C          66.6022   93.5360   11.8886 C.ar    1  UNL1        0.0403
     54 C          67.2523   92.4195   11.1266 C.ar    1  UNL1        0.0025
     55 C          67.6738   92.6293    9.7024 C.ar    1  UNL1        0.0205
     56 C          67.4451   93.9557    9.0403 C.ar    1  UNL1        0.0989
     57 N          66.7950   95.0722    9.8023 N.ar    1  UNL1       -0.2425
     58 C          66.3735   94.8623   11.2264 C.ar    1  UNL1        0.0982
@<TRIPOS>BOND
     1    30    31    1
     2    31    20    1
     3    20    21   ar
     4    21    22   ar
     5    22    23   ar
     6    23    24   ar
     7    24    25   ar
     8    25    32    1
     9    32    33    1
    10    23    26    1
    11    26    27    1
    12    27    19    1
    13    19    18    1
    14    18    12    1
    15    12    13   ar
    16    13    14   ar
    17    14    15   ar
    18    15     7    1
    19     7     8   ar
    20     8     9   ar
    21     9    10   ar
    22    10     1    1
    23     1     2   ar
    24     2     3   ar
    25     3    51    1
    26    51    52    1
    27    52    53    1
    28    53    54   ar
    29    54    55   ar
    30    55    56   ar
    31    56    57   ar
    32    57    58   ar
    33     3     4   ar
    34     4    49    1
    35    49    50    1
    36     4     5   ar
    37     5     6   ar
    38     6    34    1
    39    34    35   am
    40    35    36    2
    41    35    38    1
    42    38    39   ar
    43    39    40   ar
    44    40    41    2
    45    40    42   ar
    46    42    43   ar
    47    43    44   ar
    48    44    45   ar
    49    45    46   ar
    50    46    47   ar
    51    47    48   ar
    52    10    11   ar
    53    15    16   ar
    54    16    17   ar
    55    27    28    1
    56    28    29    1
    57    25    20   ar
    58    17    12   ar
    59    29    22    1
    60    11     7   ar
    61     6     1   ar
    62    48    38   ar
    63    58    53   ar
    64    47    42   ar
    65    34    37    1
@<TRIPOS>MOLECULE
*****
 58 65 0 0 0
SMALL
GASTEIGER

@<TRIPOS>ATOM
      1 C          60.7814   94.7934   -1.5385 C.ar    1  UNL1        0.0560
      2 C          62.2785   94.7023   -1.5281 C.ar    1  UNL1        0.0445
      3 C          63.0792   95.3895   -2.5941 C.ar    1  UNL1        0.1729
      4 C          62.3828   96.1679   -3.6707 C.ar    1  UNL1        0.1736
      5 C          60.8856   96.2591   -3.6812 C.ar    1  UNL1        0.0548
      6 C          60.0849   95.5719   -2.6151 C.ar    1  UNL1        0.0569
      7 N          59.3739   92.9384    1.5669 N.ar    1  UNL1       -0.1285
      8 N          58.1228   93.1589    0.7693 N.ar    1  UNL1       -0.0406
      9 N          58.4977   93.8806   -0.4911 N.ar    1  UNL1       -0.1074
     10 C          59.9806   94.1062   -0.4725 C.ar    1  UNL1        0.2075
     11 N          60.5221   93.5239    0.7994 N.ar    1  UNL1       -0.1253
     12 C          59.6364   90.8817    5.5607 C.ar    1  UNL1       -0.0207
     13 C          58.3036   91.3164    5.0271 C.ar    1  UNL1       -0.0026
     14 C          58.2162   92.0020    3.6958 C.ar    1  UNL1        0.0206
     15 C          59.4614   92.2529    2.8981 C.ar    1  UNL1        0.1045
     16 C          60.7942   91.8182    3.4317 C.ar    1  UNL1        0.0206
     17 C          60.8817   91.1326    4.7629 C.ar    1  UNL1       -0.0026
     18 C          59.7240   90.1961    6.8920 C.3     1  UNL1        0.0437
     19 C          59.7812   88.6989    6.9622 C.3     1  UNL1        0.0771
     20 C          62.6675   84.8735   11.8903 C.ar    1  UNL1        0.1721
     21 C          61.6821   86.0013   11.9732 C.ar    1  UNL1        0.0356
     22 C          61.2068   86.6757   10.7204 C.ar    1  UNL1       -0.0202
     23 C          61.7171   86.2222    9.3848 C.ar    1  UNL1       -0.0068
     24 C          62.7025   85.0944    9.3019 C.ar    1  UNL1        0.0368
     25 C          63.1777   84.4200   10.5546 C.ar    1  UNL1        0.1721
     26 C          61.2419   86.8966    8.1320 C.3     1  UNL1        0.0990
     27 N          60.2565   88.0244    8.2150 N.3     1  UNL1       -0.2683
     28 C          59.7462   88.4779    9.5507 C.3     1  UNL1        0.0771
     29 C          60.2214   87.8035   10.8034 C.3     1  UNL1        0.0435
     30 C          64.6112   84.0036   13.3788 C.3     1  UNL1        0.2526
     31 O          63.1428   84.1990   13.1430 O.3     1  UNL1       -0.4684
     32 O          64.1632   83.2921   10.4717 O.3     1  UNL1       -0.4684
     33 C          63.6919   81.8736   10.5973 C.3     1  UNL1        0.2526
     34 N          58.5876   95.6631   -2.6256 N.am    1  UNL1       -0.2777
     35 C          57.8601   95.9065   -3.9146 C.2     1  UNL1        0.2843
     36 O          58.6298   96.0588   -5.1930 O.2     1  UNL1       -0.2665
     37 H          58.0825   95.5631   -1.7865 H       1  UNL1        0.1553
     38 C          56.3629   95.9977   -3.9251 C.ar    1  UNL1        0.2017
     39 C          55.5959   95.8895   -2.6406 C.ar    1  UNL1        0.0843
     40 C          54.0988   95.9807   -2.6511 C.ar    1  UNL1        0.2018
     41 O          53.3317   95.8724   -1.3665 O.2     1  UNL1       -0.2864
     42 C          53.3686   96.1801   -3.9461 C.ar    1  UNL1        0.0735
     43 C          51.8714   96.2713   -3.9566 C.ar    1  UNL1        0.0062
     44 C          51.1412   96.4707   -5.2517 C.ar    1  UNL1        0.0003
     45 C          51.9082   96.5789   -6.5362 C.ar    1  UNL1        0.0031
     46 C          53.4055   96.4878   -6.5257 C.ar    1  UNL1        0.0376
     47 C          54.1356   96.2883   -5.2306 C.ar    1  UNL1        0.1485
     48 O          55.6328   96.1971   -5.2202 O.2     1  UNL1       -0.4487
     49 O          63.1835   96.8552   -4.7368 O.3     1  UNL1       -0.4683
     50 C          62.7325   96.8001   -6.1662 C.3     1  UNL1        0.2526
     51 O          64.5764   95.2983   -2.5836 O.3     1  UNL1       -0.4675
     52 C          65.2638   94.1654   -3.2866 C.3     1  UNL1        0.2337
     53 C          64.9076   93.8372   -4.7063 C.ar    1  UNL1        0.0403
     54 C          65.5599   94.5805   -5.8341 C.ar    1  UNL1        0.0025
     55 C          65.2038   94.2524   -7.2538 C.ar    1  UNL1        0.0205
     56 C          64.1955   93.1809   -7.5456 C.ar    1  UNL1        0.0989
     57 N          63.5432   92.4376   -6.4178 N.ar    1  UNL1       -0.2425
     58 C          63.8993   92.7658   -4.9982 C.ar    1  UNL1        0.0982
@<TRIPOS>BOND
     1    30    31    1
     2    31    20    1
     3    20    21   ar
     4    21    22   ar
     5    22    23   ar
     6    23    24   ar
     7    24    25   ar
     8    25    32    1
     9    32    33    1
    10    23    26    1
    11    26    27    1
    12    27    19    1
    13    19    18    1
    14    18    12    1
    15    12    13   ar
    16    13    14   ar
    17    14    15   ar
    18    15     7    1
    19     7     8   ar
    20     8     9   ar
    21     9    10   ar
    22    10     1    1
    23     1     2   ar
    24     2     3   ar
    25     3    51    1
    26    51    52    1
    27    52    53    1
    28    53    54   ar
    29    54    55   ar
    30    55    56   ar
    31    56    57   ar
    32    57    58   ar
    33     3     4   ar
    34     4    49    1
    35    49    50    1
    36     4     5   ar
    37     5     6   ar
    38     6    34    1
    39    34    35   am
    40    35    36    2
    41    35    38    1
    42    38    39   ar
    43    39    40   ar
    44    40    41    2
    45    40    42   ar
    46    42    43   ar
    47    43    44   ar
    48    44    45   ar
    49    45    46   ar
    50    46    47   ar
    51    47    48   ar
    52    10    11   ar
    53    15    16   ar
    54    16    17   ar
    55    27    28    1
    56    28    29    1
    57    25    20   ar
    58    17    12   ar
    59    29    22    1
    60    11     7   ar
    61     6     1   ar
    62    48    38   ar
    63    58    53   ar
    64    47    42   ar
    65    34    37    1
@<TRIPOS>MOLECULE
*****
 58 65 0 0 0
SMALL
GASTEIGER

@<TRIPOS>ATOM
      1 C          60.7521   94.9162   -1.7131 C.ar    1  UNL1        0.0560
      2 C          62.2498   94.8748   -1.6440 C.ar    1  UNL1        0.0445
      3 C          63.0686   95.5212   -2.7219 C.ar    1  UNL1        0.1729
      4 C          62.3895   96.2091   -3.8689 C.ar    1  UNL1        0.1736
      5 C          60.8917   96.2505   -3.9381 C.ar    1  UNL1        0.0548
      6 C          60.0730   95.6041   -2.8602 C.ar    1  UNL1        0.0569
      7 N          59.2985   93.1311    1.4119 N.ar    1  UNL1       -0.1285
      8 N          58.0482   93.4192    0.6350 N.ar    1  UNL1       -0.0406
      9 N          58.4405   94.1229   -0.6303 N.ar    1  UNL1       -0.1074
     10 C          59.9333   94.2699   -0.6353 C.ar    1  UNL1        0.2075
     11 N          60.4636   93.6569    0.6269 N.ar    1  UNL1       -0.1253
     12 C          59.5161   91.0544    5.3981 C.ar    1  UNL1       -0.0207
     13 C          58.1883   91.4826    4.8470 C.ar    1  UNL1       -0.0026
     14 C          58.1158   92.1749    3.5182 C.ar    1  UNL1        0.0206
     15 C          59.3710   92.4389    2.7406 C.ar    1  UNL1        0.1045
     16 C          60.6988   92.0106    3.2917 C.ar    1  UNL1        0.0206
     17 C          60.7713   91.3184    4.6204 C.ar    1  UNL1       -0.0026
     18 C          59.5886   90.3621    6.7268 C.3     1  UNL1        0.0437
     19 C          59.4579   88.8698    6.8031 C.3     1  UNL1        0.0771
     20 C          62.8576   86.5615   12.3135 C.ar    1  UNL1        0.1721
     21 C          62.2766   85.8294   11.1404 C.ar    1  UNL1        0.0356
     22 C          61.5719   86.5895   10.0560 C.ar    1  UNL1       -0.0202
     23 C          61.4482   88.0817   10.1449 C.ar    1  UNL1       -0.0068
     24 C          62.0292   88.8139   11.3182 C.ar    1  UNL1        0.0368
     25 C          62.7338   88.0538   12.4025 C.ar    1  UNL1        0.1721
     26 C          60.7435   88.8418    9.0607 C.3     1  UNL1        0.0990
     27 N          60.1626   88.1097    7.8875 N.3     1  UNL1       -0.2683
     28 C          60.2864   86.6174    7.7985 C.3     1  UNL1        0.0771
     29 C          60.9910   85.8573    8.8828 C.3     1  UNL1        0.0435
     30 C          62.8712   84.6614   14.0854 C.3     1  UNL1        0.2526
     31 O          63.5623   85.8015   13.3979 O.3     1  UNL1       -0.4684
     32 O          63.3148   88.7859   13.5758 O.3     1  UNL1       -0.4684
     33 C          64.1948   89.9802   13.3536 C.3     1  UNL1        0.2526
     34 N          58.5751   95.6455   -2.9294 N.am    1  UNL1       -0.2777
     35 C          57.8914   95.8927   -4.2414 C.2     1  UNL1        0.2843
     36 O          58.7056   96.0985   -5.4843 O.2     1  UNL1       -0.2665
     37 H          58.0407   95.5104   -2.1136 H       1  UNL1        0.1553
     38 C          56.3936   95.9341   -4.3106 C.ar    1  UNL1        0.2017
     39 C          55.7060   96.0033   -5.6419 C.ar    1  UNL1        0.0843
     40 C          54.2082   96.0447   -5.7112 C.ar    1  UNL1        0.2018
     41 O          53.5205   96.1138   -7.0426 O.2     1  UNL1       -0.2864
     42 C          53.3980   96.0170   -4.4491 C.ar    1  UNL1        0.0735
     43 C          51.9001   96.0584   -4.5184 C.ar    1  UNL1        0.0062
     44 C          51.0899   96.0307   -3.2563 C.ar    1  UNL1        0.0003
     45 C          51.7775   95.9616   -1.9250 C.ar    1  UNL1        0.0031
     46 C          53.2754   95.9202   -1.8558 C.ar    1  UNL1        0.0376
     47 C          54.0856   95.9479   -3.1178 C.ar    1  UNL1        0.1485
     48 O          55.5834   95.9064   -3.0486 O.2     1  UNL1       -0.4487
     49 O          63.2082   96.8555   -4.9468 O.3     1  UNL1       -0.4683
     50 C          62.8510   96.6446   -6.3882 C.3     1  UNL1        0.2526
     51 O          64.5664   95.4798   -2.6527 O.3     1  UNL1       -0.4675
     52 C          65.3152   94.3430   -3.2828 C.3     1  UNL1        0.2337
     53 C          65.0428   93.9643   -4.7085 C.ar    1  UNL1        0.0403
     54 C          64.1464   92.8022   -5.0177 C.ar    1  UNL1        0.0025
     55 C          63.8741   92.4234   -6.4433 C.ar    1  UNL1        0.0205
     56 C          64.4983   93.2069   -7.5597 C.ar    1  UNL1        0.0989
     57 N          65.3948   94.3692   -7.2506 N.ar    1  UNL1       -0.2425
     58 C          65.6670   94.7478   -5.8250 C.ar    1  UNL1        0.0982
@<TRIPOS>BOND
     1    30    31    1
     2    31    20    1
     3    20    21   ar
     4    21    22   ar
     5    22    23   ar
     6    23    24   ar
     7    24    25   ar
     8    25    32    1
     9    32    33    1
    10    23    26    1
    11    26    27    1
    12    27    19    1
    13    19    18    1
    14    18    12    1
    15    12    13   ar
    16    13    14   ar
    17    14    15   ar
    18    15     7    1
    19     7     8   ar
    20     8     9   ar
    21     9    10   ar
    22    10     1    1
    23     1     2   ar
    24     2     3   ar
    25     3    51    1
    26    51    52    1
    27    52    53    1
    28    53    54   ar
    29    54    55   ar
    30    55    56   ar
    31    56    57   ar
    32    57    58   ar
    33     3     4   ar
    34     4    49    1
    35    49    50    1
    36     4     5   ar
    37     5     6   ar
    38     6    34    1
    39    34    35   am
    40    35    36    2
    41    35    38    1
    42    38    39   ar
    43    39    40   ar
    44    40    41    2
    45    40    42   ar
    46    42    43   ar
    47    43    44   ar
    48    44    45   ar
    49    45    46   ar
    50    46    47   ar
    51    47    48   ar
    52    10    11   ar
    53    15    16   ar
    54    16    17   ar
    55    27    28    1
    56    28    29    1
    57    25    20   ar
    58    17    12   ar
    59    29    22    1
    60    11     7   ar
    61     6     1   ar
    62    48    38   ar
    63    58    53   ar
    64    47    42   ar
    65    34    37    1
