@<TRIPOS>MOLECULE
*****
 30 33 0 0 0
SMALL
GASTEIGER

@<TRIPOS>ATOM
      1 C          62.1409   87.7080   10.8585 C.3     1  UNL1        0.0324
      2 C          63.0261   88.1561   11.9836 C.ar    1  UNL1       -0.0071
      3 C          63.6154   89.5353   11.9706 C.ar    1  UNL1        0.0115
      4 C          64.5006   89.9833   13.0957 C.ar    1  UNL1        0.0476
      5 C          64.7964   89.0521   14.2337 C.ar    1  UNL1        0.0158
      6 C          64.2070   87.6728   14.2467 C.ar    1  UNL1        0.0156
      7 C          63.3219   87.2248   13.1216 C.ar    1  UNL1        0.0466
      8 N          65.0900   91.3627   13.0827 N.pl3   1  UNL1       -0.3061
      9 C          65.5117   92.1527   14.2860 C.3     1  UNL1        0.0923
     10 C          66.0434   93.4724   13.8110 C.3     1  UNL1        0.0391
     11 C          65.9503   93.4981   12.3141 C.3     1  UNL1        0.0790
     12 C          65.3610   92.1942   11.8640 C.3     1  UNL1        0.1067
     13 N          66.3723   94.6290   11.4237 N.3     1  UNL1       -0.2736
     14 C          66.0545   96.0802   11.6311 C.3     1  UNL1        0.0721
     15 C          66.6721   96.8554   10.5051 C.3     1  UNL1        0.0187
     16 C          67.3714   95.8833    9.6019 C.3     1  UNL1        0.0174
     17 C          67.1862   94.5073   10.1696 C.3     1  UNL1        0.0576
     18 C          67.7210   93.2333    9.5857 C.3     1  UNL1        0.0173
     19 N          62.7325   85.8454   13.1346 N.am    1  UNL1       -0.2806
     20 C          63.6225   84.6513   13.3133 C.2     1  UNL1        0.2493
     21 O          65.1018   84.8364   13.4789 O.2     1  UNL1       -0.2698
     22 H          61.7616   85.7239   13.0260 H       1  UNL1        0.1552
     23 C          63.0331   83.2719   13.3263 C.ar    1  UNL1        0.0520
     24 C          63.2057   82.3714   12.1392 C.ar    1  UNL1        0.0338
     25 C          62.6164   80.9921   12.1522 C.ar    1  UNL1        0.1403
     26 F          62.7890   80.0915   10.9651 F       1  UNL1       -0.2042
     27 C          61.8545   80.5133   13.3522 C.ar    1  UNL1        0.0293
     28 C          61.6819   81.4139   14.5393 C.ar    1  UNL1       -0.0018
     29 C          62.2712   82.7932   14.5264 C.ar    1  UNL1       -0.0173
     30 C          62.0986   83.6937   15.7135 C.3     1  UNL1        0.0312
@<TRIPOS>BOND
     1     1     2    1
     2     2     3   ar
     3     3     4   ar
     4     4     8    1
     5     8     9    1
     6     9    10    1
     7    10    11    1
     8    11    13    1
     9    13    14    1
    10    14    15    1
    11    15    16    1
    12    16    17    1
    13    17    18    1
    14    11    12    1
    15     4     5   ar
    16     5     6   ar
    17     6     7   ar
    18     7    19    1
    19    19    20   am
    20    20    21    2
    21    20    23    1
    22    23    24   ar
    23    24    25   ar
    24    25    26    1
    25    25    27   ar
    26    27    28   ar
    27    28    29   ar
    28    29    30    1
    29     7     2   ar
    30    29    23   ar
    31    12     8    1
    32    17    13    1
    33    19    22    1
@<TRIPOS>MOLECULE
*****
 30 33 0 0 0
SMALL
GASTEIGER

@<TRIPOS>ATOM
      1 C          62.0327   89.0536   10.8414 C.3     1  UNL1        0.0324
      2 C          61.1661   88.5916    9.7076 C.ar    1  UNL1       -0.0071
      3 C          60.8054   89.5414    8.6040 C.ar    1  UNL1        0.0115
      4 C          59.9389   89.0794    7.4702 C.ar    1  UNL1        0.0476
      5 C          59.4330   87.6676    7.4399 C.ar    1  UNL1        0.0158
      6 C          59.7937   86.7179    8.5434 C.ar    1  UNL1        0.0156
      7 C          60.6603   87.1799    9.6772 C.ar    1  UNL1        0.0466
      8 N          59.5782   90.0292    6.3666 N.pl3   1  UNL1       -0.3061
      9 C          58.1960   90.5040    6.0285 C.3     1  UNL1        0.0923
     10 C          58.3000   91.4392    4.8604 C.3     1  UNL1        0.0391
     11 C          59.7464   91.5425    4.4766 C.3     1  UNL1        0.0790
     12 C          60.5363   90.6711    5.4075 C.3     1  UNL1        0.1067
     13 N          60.3048   92.3716    3.3582 N.3     1  UNL1       -0.2736
     14 C          59.5540   93.3963    2.5605 C.3     1  UNL1        0.0721
     15 C          60.4972   93.9796    1.5505 C.3     1  UNL1        0.0187
     16 C          61.8309   93.3154    1.7240 C.3     1  UNL1        0.0174
     17 C          61.7120   92.3216    2.8412 C.3     1  UNL1        0.0576
     18 C          62.8078   91.4337    3.3518 C.3     1  UNL1        0.0173
     19 N          61.0209   86.2300   10.7808 N.am    1  UNL1       -0.2806
     20 C          62.2133   85.3313   10.6370 C.2     1  UNL1        0.2493
     21 O          63.0450   85.3824    9.3898 O.2     1  UNL1       -0.2698
     22 H          60.4751   86.1964   11.5994 H       1  UNL1        0.1552
     23 C          62.5740   84.3815   11.7406 C.ar    1  UNL1        0.0520
     24 C          62.3503   82.9086   11.5654 C.ar    1  UNL1        0.0338
     25 C          62.7110   81.9588   12.6689 C.ar    1  UNL1        0.1403
     26 F          62.4874   80.4859   12.4937 F       1  UNL1       -0.2042
     27 C          63.2953   82.4818   13.9475 C.ar    1  UNL1        0.0293
     28 C          63.5189   83.9547   14.1227 C.ar    1  UNL1       -0.0018
     29 C          63.1582   84.9045   13.0193 C.ar    1  UNL1       -0.0173
     30 C          63.3819   86.3773   13.1944 C.3     1  UNL1        0.0312
@<TRIPOS>BOND
     1     1     2    1
     2     2     3   ar
     3     3     4   ar
     4     4     8    1
     5     8     9    1
     6     9    10    1
     7    10    11    1
     8    11    13    1
     9    13    14    1
    10    14    15    1
    11    15    16    1
    12    16    17    1
    13    17    18    1
    14    11    12    1
    15     4     5   ar
    16     5     6   ar
    17     6     7   ar
    18     7    19    1
    19    19    20   am
    20    20    21    2
    21    20    23    1
    22    23    24   ar
    23    24    25   ar
    24    25    26    1
    25    25    27   ar
    26    27    28   ar
    27    28    29   ar
    28    29    30    1
    29     7     2   ar
    30    29    23   ar
    31    12     8    1
    32    17    13    1
    33    19    22    1
@<TRIPOS>MOLECULE
*****
 30 33 0 0 0
SMALL
GASTEIGER

@<TRIPOS>ATOM
      1 C          62.9716   90.2097   10.5957 C.3     1  UNL1        0.0324
      2 C          63.5281   89.7574   11.9132 C.ar    1  UNL1       -0.0071
      3 C          63.3445   88.3363   12.3568 C.ar    1  UNL1        0.0115
      4 C          63.9011   87.8840   13.6743 C.ar    1  UNL1        0.0476
      5 C          64.6412   88.8528   14.5481 C.ar    1  UNL1        0.0158
      6 C          64.8247   90.2739   14.1045 C.ar    1  UNL1        0.0156
      7 C          64.2682   90.7261   12.7871 C.ar    1  UNL1        0.0466
      8 N          63.7175   86.4629   14.1178 N.pl3   1  UNL1       -0.3061
      9 C          63.9009   85.9441   15.5132 C.3     1  UNL1        0.0923
     10 C          63.6150   84.4716   15.5017 C.3     1  UNL1        0.0391
     11 C          63.2549   84.0803   14.0990 C.3     1  UNL1        0.0790
     12 C          63.3182   85.3110   13.2438 C.3     1  UNL1        0.1067
     13 N          62.8947   82.7007   13.6335 N.3     1  UNL1       -0.2736
     14 C          61.9959   81.7357   14.3482 C.3     1  UNL1        0.0721
     15 C          61.9158   80.4824   13.5278 C.3     1  UNL1        0.0187
     16 C          62.7650   80.6729   12.3062 C.3     1  UNL1        0.0174
     17 C          63.3700   82.0439   12.3715 C.3     1  UNL1        0.0576
     18 C          64.2890   82.6515   11.3534 C.3     1  UNL1        0.0173
     19 N          64.4518   92.1473   12.3435 N.am    1  UNL1       -0.2806
     20 C          65.7657   92.5907   11.7718 C.2     1  UNL1        0.2493
     21 O          66.8961   91.6131   11.6436 O.2     1  UNL1       -0.2698
     22 H          63.7099   92.7890   12.4276 H       1  UNL1        0.1552
     23 C          65.9493   94.0119   11.3282 C.ar    1  UNL1        0.0520
     24 C          65.7455   94.3805    9.8885 C.ar    1  UNL1        0.0338
     25 C          65.9290   95.8016    9.4449 C.ar    1  UNL1        0.1403
     26 F          65.7252   96.1701    8.0053 F       1  UNL1       -0.2042
     27 C          66.3165   96.8540   10.4410 C.ar    1  UNL1        0.0293
     28 C          66.5203   96.4854   11.8806 C.ar    1  UNL1       -0.0018
     29 C          66.3367   95.0644   12.3242 C.ar    1  UNL1       -0.0173
     30 C          66.5406   94.6958   13.7639 C.3     1  UNL1        0.0312
@<TRIPOS>BOND
     1     1     2    1
     2     2     3   ar
     3     3     4   ar
     4     4     8    1
     5     8     9    1
     6     9    10    1
     7    10    11    1
     8    11    13    1
     9    13    14    1
    10    14    15    1
    11    15    16    1
    12    16    17    1
    13    17    18    1
    14    11    12    1
    15     4     5   ar
    16     5     6   ar
    17     6     7   ar
    18     7    19    1
    19    19    20   am
    20    20    21    2
    21    20    23    1
    22    23    24   ar
    23    24    25   ar
    24    25    26    1
    25    25    27   ar
    26    27    28   ar
    27    28    29   ar
    28    29    30    1
    29     7     2   ar
    30    29    23   ar
    31    12     8    1
    32    17    13    1
    33    19    22    1
@<TRIPOS>MOLECULE
*****
 30 33 0 0 0
SMALL
GASTEIGER

@<TRIPOS>ATOM
      1 C          61.9771   85.7440   10.8943 C.3     1  UNL1        0.0324
      2 C          62.7500   86.0789   12.1354 C.ar    1  UNL1       -0.0071
      3 C          63.1450   87.4991   12.4127 C.ar    1  UNL1        0.0115
      4 C          63.9179   87.8339   13.6538 C.ar    1  UNL1        0.0476
      5 C          64.2958   86.7486   14.6177 C.ar    1  UNL1        0.0158
      6 C          63.9008   85.3284   14.3405 C.ar    1  UNL1        0.0156
      7 C          63.1279   84.9935   13.0993 C.ar    1  UNL1        0.0466
      8 N          64.3130   89.2542   13.9310 N.pl3   1  UNL1       -0.3061
      9 C          63.4312   90.4590   13.7861 C.3     1  UNL1        0.0923
     10 C          64.2324   91.6684   14.1673 C.3     1  UNL1        0.0391
     11 C          65.6094   91.2111   14.5479 C.3     1  UNL1        0.0790
     12 C          65.6592   89.7191   14.4019 C.3     1  UNL1        0.1067
     13 N          66.7383   92.0913   14.9959 N.3     1  UNL1       -0.2736
     14 C          66.7812   92.8942   16.2622 C.3     1  UNL1        0.0721
     15 C          68.0920   93.6223   16.3051 C.3     1  UNL1        0.0187
     16 C          68.8591   93.2693   15.0654 C.3     1  UNL1        0.0174
     17 C          68.0225   92.3231   14.2562 C.3     1  UNL1        0.0576
     18 C          68.4032   91.7155   12.9387 C.3     1  UNL1        0.0173
     19 N          62.7329   83.5732   12.8221 N.am    1  UNL1       -0.2806
     20 C          63.5962   82.7113   11.9493 C.2     1  UNL1        0.2493
     21 O          64.8546   83.2697   11.3537 O.2     1  UNL1       -0.2698
     22 H          61.9069   83.2067   13.2130 H       1  UNL1        0.1552
     23 C          63.2012   81.2910   11.6721 C.ar    1  UNL1        0.0520
     24 C          63.3291   80.7341   10.2852 C.ar    1  UNL1        0.0338
     25 C          62.9341   79.3139   10.0080 C.ar    1  UNL1        0.1403
     26 F          63.0620   78.7569    8.6211 F       1  UNL1       -0.2042
     27 C          62.4112   78.4506   11.1176 C.ar    1  UNL1        0.0293
     28 C          62.2833   79.0076   12.5045 C.ar    1  UNL1       -0.0018
     29 C          62.6783   80.4278   12.7817 C.ar    1  UNL1       -0.0173
     30 C          62.5504   80.9847   14.1686 C.3     1  UNL1        0.0312
@<TRIPOS>BOND
     1     1     2    1
     2     2     3   ar
     3     3     4   ar
     4     4     8    1
     5     8     9    1
     6     9    10    1
     7    10    11    1
     8    11    13    1
     9    13    14    1
    10    14    15    1
    11    15    16    1
    12    16    17    1
    13    17    18    1
    14    11    12    1
    15     4     5   ar
    16     5     6   ar
    17     6     7   ar
    18     7    19    1
    19    19    20   am
    20    20    21    2
    21    20    23    1
    22    23    24   ar
    23    24    25   ar
    24    25    26    1
    25    25    27   ar
    26    27    28   ar
    27    28    29   ar
    28    29    30    1
    29     7     2   ar
    30    29    23   ar
    31    12     8    1
    32    17    13    1
    33    19    22    1
