@<TRIPOS>MOLECULE
*****
 38 42 0 0 0
SMALL
GASTEIGER

@<TRIPOS>ATOM
      1 N          61.6792   88.3849   11.1677 N.am    1  UNL1       -0.2770
      2 C          62.6898   87.3218   11.4816 C.2     1  UNL1        0.2294
      3 O          63.5947   87.4741   12.6681 O.2     1  UNL1       -0.2747
      4 C          62.7954   86.1064   10.6088 C.3     1  UNL1        0.1211
      5 C          62.9151   86.2592    9.1215 C.3     1  UNL1        0.0804
      6 N          63.0208   85.0438    8.2488 N.3     1  UNL1       -0.2969
      7 C          63.0068   83.6756    8.8635 C.3     1  UNL1        0.0714
      8 C          62.8871   83.5228   10.3509 C.3     1  UNL1        0.0490
      9 C          62.7815   84.7382   11.2235 C.3     1  UNL1        0.1223
     10 O          62.6683   85.8552   12.2184 O.3     1  UNL1       -0.3492
     11 C          62.5708   85.2490   13.5869 C.3     1  UNL1        0.1686
     12 C          62.6238   83.7573   13.4380 C.ar    1  UNL1        0.0055
     13 C          62.5703   82.6457   14.4436 C.ar    1  UNL1       -0.0021
     14 C          62.6469   81.2183   13.9887 C.ar    1  UNL1       -0.0003
     15 C          62.7771   80.9027   12.5281 C.ar    1  UNL1       -0.0003
     16 C          62.8306   82.0143   11.5223 C.ar    1  UNL1       -0.0023
     17 C          62.7539   83.4416   11.9773 C.ar    1  UNL1        0.0010
     18 H          63.8974   85.1263    7.7339 H       1  UNL1        0.1233
     19 C          60.7742   88.2326    9.9811 C.3     1  UNL1        0.0758
     20 C          59.7490   87.4434    9.2221 C.3     1  UNL1        0.0215
     21 C          60.2321   88.7579    8.6850 C.3     1  UNL1        0.0215
     22 C          61.5735   89.6003   12.0404 C.3     1  UNL1        0.1201
     23 C          64.5793   91.3526   13.9495 C.ar    1  UNL1       -0.0194
     24 C          63.3661   90.5107   13.6859 C.ar    1  UNL1       -0.0067
     25 C          62.7866   90.4422   12.3040 C.ar    1  UNL1        0.0004
     26 C          63.4203   91.2155   11.1858 C.ar    1  UNL1        0.0343
     27 C          64.6335   92.0573   11.4494 C.ar    1  UNL1        0.1381
     28 C          65.2130   92.1259   12.8312 C.ar    1  UNL1        0.0326
     29 C          65.1588   91.4212   15.3313 C.3     1  UNL1        0.0290
     30 C          66.2580   92.3952   15.6361 C.3     1  UNL1        0.0367
     31 C          67.6899   91.9990   15.4293 C.3     1  UNL1        0.1426
     32 C          69.1906   94.0660   15.9035 C.3     1  UNL1        0.1741
     33 O          68.6887   93.0144   14.9590 O.3     1  UNL1       -0.3511
     34 O          65.2672   92.8306   10.3311 O.3     1  UNL1       -0.4728
     35 C          66.1632   93.9940   10.6373 C.3     1  UNL1        0.2373
     36 C          67.1115   94.5053    9.5937 C.3     1  UNL1        0.1894
     37 O          68.5137   93.9762    9.5306 O.3     1  UNL1       -0.3471
     38 C          68.7539   92.4995    9.4227 C.3     1  UNL1        0.1743
@<TRIPOS>BOND
     1    32    33    1
     2    33    31    1
     3    31    30    1
     4    30    29    1
     5    29    23    1
     6    23    24   ar
     7    24    25   ar
     8    25    22    1
     9    22     1    1
    10     1     2   am
    11     2     3    2
    12     4     2    1
    13     4     5    1
    14     5     6    1
    15     6     7    1
    16     7     8    1
    17     9     8    1
    18     9    10    1
    19    10    11    1
    20    11    12    1
    21    12    13   ar
    22    13    14   ar
    23    14    15   ar
    24    15    16   ar
    25    16    17   ar
    26     1    19    1
    27    19    20    1
    28    20    21    1
    29    25    26   ar
    30    26    27   ar
    31    27    34    1
    32    34    35    1
    33    35    36    1
    34    36    37    1
    35    37    38    1
    36    27    28   ar
    37    28    23   ar
    38     9     4    1
    39    17    12   ar
    40    21    19    1
    41    17     9    1
    42     6    18    1
@<TRIPOS>MOLECULE
*****
 38 42 0 0 0
SMALL
GASTEIGER

@<TRIPOS>ATOM
      1 N          61.6050   88.2954   11.1473 N.am    1  UNL1       -0.2770
      2 C          62.6336   87.2511   11.4655 C.2     1  UNL1        0.2294
      3 O          63.5310   87.4202   12.6554 O.2     1  UNL1       -0.2747
      4 C          62.7648   86.0375   10.5936 C.3     1  UNL1        0.1211
      5 C          62.8988   86.1925    9.1077 C.3     1  UNL1        0.0804
      6 N          63.0300   84.9790    8.2359 N.3     1  UNL1       -0.2969
      7 C          63.0272   83.6104    8.8500 C.3     1  UNL1        0.0714
      8 C          62.8932   83.4554   10.3359 C.3     1  UNL1        0.0490
      9 C          62.7620   84.6690   11.2077 C.3     1  UNL1        0.1223
     10 O          62.6233   85.7839   12.2016 O.3     1  UNL1       -0.3492
     11 C          62.5187   85.1759   13.5688 C.3     1  UNL1        0.1686
     12 C          62.5929   83.6851   13.4200 C.ar    1  UNL1        0.0055
     13 C          62.5429   82.5724   14.4247 C.ar    1  UNL1       -0.0021
     14 C          62.6433   81.1464   13.9702 C.ar    1  UNL1       -0.0003
     15 C          62.7936   80.8332   12.5110 C.ar    1  UNL1       -0.0003
     16 C          62.8436   81.9459   11.5062 C.ar    1  UNL1       -0.0023
     17 C          62.7432   83.3718   11.9607 C.ar    1  UNL1        0.0010
     18 H          63.9111   85.0732    7.7307 H       1  UNL1        0.1233
     19 C          60.7076   88.1262    9.9573 C.3     1  UNL1        0.0758
     20 C          59.6980   87.3194    9.1958 C.3     1  UNL1        0.0215
     21 C          60.1629   88.6401    8.6576 C.3     1  UNL1        0.0215
     22 C          61.4737   89.5089   12.0191 C.3     1  UNL1        0.1201
     23 C          64.5603   91.9504   11.5068 C.ar    1  UNL1       -0.0194
     24 C          63.3564   91.1062   11.2102 C.ar    1  UNL1       -0.0067
     25 C          62.6776   90.3531   12.3157 C.ar    1  UNL1        0.0004
     26 C          63.2028   90.4442   13.7178 C.ar    1  UNL1        0.0343
     27 C          64.4067   91.2884   14.0144 C.ar    1  UNL1        0.1381
     28 C          65.0854   92.0415   12.9090 C.ar    1  UNL1        0.0326
     29 C          65.2391   92.7035   10.4013 C.3     1  UNL1        0.0290
     30 C          66.1175   93.8763   10.7221 C.3     1  UNL1        0.0367
     31 C          67.1046   94.3736    9.7079 C.3     1  UNL1        0.1426
     32 C          68.7317   92.4217    9.1674 C.3     1  UNL1        0.1741
     33 O          68.4953   93.8124    9.6771 O.3     1  UNL1       -0.3511
     34 O          64.9318   91.3795   15.4166 O.3     1  UNL1       -0.4728
     35 C          66.0312   92.3459   15.7444 C.3     1  UNL1        0.2373
     36 C          67.4544   92.0012   15.4195 C.3     1  UNL1        0.1894
     37 O          68.5698   92.5550   16.2556 O.3     1  UNL1       -0.3471
     38 C          69.1215   93.9186   15.9619 C.3     1  UNL1        0.1743
@<TRIPOS>BOND
     1    32    33    1
     2    33    31    1
     3    31    30    1
     4    30    29    1
     5    29    23    1
     6    23    24   ar
     7    24    25   ar
     8    25    22    1
     9    22     1    1
    10     1     2   am
    11     2     3    2
    12     4     2    1
    13     4     5    1
    14     5     6    1
    15     6     7    1
    16     7     8    1
    17     9     8    1
    18     9    10    1
    19    10    11    1
    20    11    12    1
    21    12    13   ar
    22    13    14   ar
    23    14    15   ar
    24    15    16   ar
    25    16    17   ar
    26     1    19    1
    27    19    20    1
    28    20    21    1
    29    25    26   ar
    30    26    27   ar
    31    27    34    1
    32    34    35    1
    33    35    36    1
    34    36    37    1
    35    37    38    1
    36    27    28   ar
    37    28    23   ar
    38     9     4    1
    39    17    12   ar
    40    21    19    1
    41    17     9    1
    42     6    18    1
@<TRIPOS>MOLECULE
*****
 38 42 0 0 0
SMALL
GASTEIGER

@<TRIPOS>ATOM
      1 N          61.3751   88.0858   10.7946 N.am    1  UNL1       -0.2770
      2 C          62.4695   87.1384   11.1881 C.2     1  UNL1        0.2294
      3 O          63.3345   87.4432   12.3750 O.2     1  UNL1       -0.2747
      4 C          62.6988   85.8862   10.3947 C.3     1  UNL1        0.1211
      5 C          62.8949   85.9646    8.9097 C.3     1  UNL1        0.0804
      6 N          63.1242   84.7124    8.1163 N.3     1  UNL1       -0.2969
      7 C          63.1573   83.3818    8.8080 C.3     1  UNL1        0.0714
      8 C          62.9611   83.3034   10.2930 C.3     1  UNL1        0.0490
      9 C          62.7318   84.5556   11.0864 C.3     1  UNL1        0.1223
     10 O          62.4939   85.7159   12.0068 O.3     1  UNL1       -0.3492
     11 C          62.3542   85.1806   13.4010 C.3     1  UNL1        0.1686
     12 C          62.5056   83.6894   13.3424 C.ar    1  UNL1        0.0055
     13 C          62.4612   82.6334   14.4066 C.ar    1  UNL1       -0.0021
     14 C          62.6501   81.1910   14.0405 C.ar    1  UNL1       -0.0003
     15 C          62.8835   80.8048   12.6100 C.ar    1  UNL1       -0.0003
     16 C          62.9280   81.8608   11.5456 C.ar    1  UNL1       -0.0023
     17 C          62.7391   83.3031   11.9118 C.ar    1  UNL1        0.0010
     18 H          64.0226   84.8222    7.6460 H       1  UNL1        0.1233
     19 C          60.5100   87.7809    9.6077 C.3     1  UNL1        0.0758
     20 C          59.5980   86.8451    8.8710 C.3     1  UNL1        0.0215
     21 C          59.9235   88.1886    8.2887 C.3     1  UNL1        0.0215
     22 C          61.1457   89.3379   11.5880 C.3     1  UNL1        0.1201
     23 C          63.8814   90.9517   13.9675 C.ar    1  UNL1       -0.0194
     24 C          62.7130   90.1350   13.5007 C.ar    1  UNL1       -0.0067
     25 C          62.3141   90.1546   12.0548 C.ar    1  UNL1        0.0004
     26 C          63.0837   90.9908   11.0757 C.ar    1  UNL1        0.0343
     27 C          64.2521   91.8074   11.5425 C.ar    1  UNL1        0.1381
     28 C          64.6510   91.7879   12.9884 C.ar    1  UNL1        0.0326
     29 C          64.2803   90.9321   15.4133 C.3     1  UNL1        0.0290
     30 C          63.4294   90.2112   16.4164 C.3     1  UNL1        0.0367
     31 C          63.4062   88.7115   16.4403 C.3     1  UNL1        0.1426
     32 C          62.6329   86.5227   17.6070 C.3     1  UNL1        0.1741
     33 O          62.9467   87.9881   17.6714 O.3     1  UNL1       -0.3511
     34 O          65.0216   92.6437   10.5634 O.3     1  UNL1       -0.4728
     35 C          66.2370   93.3984   11.0142 C.3     1  UNL1        0.2373
     36 C          66.9791   94.2720   10.0467 C.3     1  UNL1        0.1894
     37 O          68.3715   93.9085    9.6237 O.3     1  UNL1       -0.3471
     38 C          68.7041   92.4866    9.2808 C.3     1  UNL1        0.1743
@<TRIPOS>BOND
     1    32    33    1
     2    33    31    1
     3    31    30    1
     4    30    29    1
     5    29    23    1
     6    23    24   ar
     7    24    25   ar
     8    25    22    1
     9    22     1    1
    10     1     2   am
    11     2     3    2
    12     4     2    1
    13     4     5    1
    14     5     6    1
    15     6     7    1
    16     7     8    1
    17     9     8    1
    18     9    10    1
    19    10    11    1
    20    11    12    1
    21    12    13   ar
    22    13    14   ar
    23    14    15   ar
    24    15    16   ar
    25    16    17   ar
    26     1    19    1
    27    19    20    1
    28    20    21    1
    29    25    26   ar
    30    26    27   ar
    31    27    34    1
    32    34    35    1
    33    35    36    1
    34    36    37    1
    35    37    38    1
    36    27    28   ar
    37    28    23   ar
    38     9     4    1
    39    17    12   ar
    40    21    19    1
    41    17     9    1
    42     6    18    1
@<TRIPOS>MOLECULE
*****
 38 42 0 0 0
SMALL
GASTEIGER

@<TRIPOS>ATOM
      1 N          61.3634   88.0651   10.8147 N.am    1  UNL1       -0.2770
      2 C          62.4586   87.1167   11.2032 C.2     1  UNL1        0.2294
      3 O          63.3216   87.4146   12.3934 O.2     1  UNL1       -0.2747
      4 C          62.6909   85.8703   10.4015 C.3     1  UNL1        0.1211
      5 C          62.8907   85.9593    8.9176 C.3     1  UNL1        0.0804
      6 N          63.1230   84.7130    8.1160 N.3     1  UNL1       -0.2969
      7 C          63.1553   83.3776    8.7983 C.3     1  UNL1        0.0714
      8 C          62.9555   83.2885   10.2823 C.3     1  UNL1        0.0490
      9 C          62.7233   84.5348   11.0839 C.3     1  UNL1        0.1223
     10 O          62.4822   85.6884   12.0119 O.3     1  UNL1       -0.3492
     11 C          62.3393   85.1431   13.4019 C.3     1  UNL1        0.1686
     12 C          62.4921   83.6525   13.3331 C.ar    1  UNL1        0.0055
     13 C          62.4458   82.5889   14.3897 C.ar    1  UNL1       -0.0021
     14 C          62.6368   81.1493   14.0138 C.ar    1  UNL1       -0.0003
     15 C          62.8741   80.7735   12.5812 C.ar    1  UNL1       -0.0003
     16 C          62.9204   81.8370   11.5245 C.ar    1  UNL1       -0.0023
     17 C          62.7294   83.2765   11.9004 C.ar    1  UNL1        0.0010
     18 H          64.0225   84.8268    7.6487 H       1  UNL1        0.1233
     19 C          60.5004   87.7671    9.6245 C.3     1  UNL1        0.0758
     20 C          59.9480   88.1655    8.2880 C.3     1  UNL1        0.0215
     21 C          59.5581   86.8526    8.8995 C.3     1  UNL1        0.0215
     22 C          61.1311   89.3114   11.6163 C.3     1  UNL1        0.1201
     23 C          64.2998   91.7005   11.6536 C.ar    1  UNL1       -0.0194
     24 C          63.1327   90.9019   11.1536 C.ar    1  UNL1       -0.0067
     25 C          62.2983   90.1100   12.1163 C.ar    1  UNL1        0.0004
     26 C          62.6310   90.1167   13.5789 C.ar    1  UNL1        0.0343
     27 C          63.7982   90.9153   14.0789 C.ar    1  UNL1        0.1381
     28 C          64.6326   91.7072   13.1163 C.ar    1  UNL1        0.0326
     29 C          65.1342   92.4924   10.6910 C.3     1  UNL1        0.0290
     30 C          66.2320   93.3776   11.2022 C.3     1  UNL1        0.0367
     31 C          66.9069   94.3461   10.2766 C.3     1  UNL1        0.1426
     32 C          68.5896   92.6402    9.2726 C.3     1  UNL1        0.1741
     33 O          68.2663   94.0333    9.7250 O.3     1  UNL1       -0.3511
     34 O          64.1309   90.9219   15.5415 O.3     1  UNL1       -0.4728
     35 C          63.3690   90.0423   16.4880 C.3     1  UNL1        0.2373
     36 C          63.4397   88.5506   16.3472 C.3     1  UNL1        0.1894
     37 O          62.3404   87.6922   16.8992 O.3     1  UNL1       -0.3471
     38 C          62.6387   86.6929   17.9773 C.3     1  UNL1        0.1743
@<TRIPOS>BOND
     1    32    33    1
     2    33    31    1
     3    31    30    1
     4    30    29    1
     5    29    23    1
     6    23    24   ar
     7    24    25   ar
     8    25    22    1
     9    22     1    1
    10     1     2   am
    11     2     3    2
    12     4     2    1
    13     4     5    1
    14     5     6    1
    15     6     7    1
    16     7     8    1
    17     9     8    1
    18     9    10    1
    19    10    11    1
    20    11    12    1
    21    12    13   ar
    22    13    14   ar
    23    14    15   ar
    24    15    16   ar
    25    16    17   ar
    26     1    19    1
    27    19    20    1
    28    20    21    1
    29    25    26   ar
    30    26    27   ar
    31    27    34    1
    32    34    35    1
    33    35    36    1
    34    36    37    1
    35    37    38    1
    36    27    28   ar
    37    28    23   ar
    38     9     4    1
    39    17    12   ar
    40    21    19    1
    41    17     9    1
    42     6    18    1
@<TRIPOS>MOLECULE
*****
 38 42 0 0 0
SMALL
GASTEIGER

@<TRIPOS>ATOM
      1 N          63.6971   85.5942   15.3588 N.am    1  UNL1       -0.2770
      2 C          62.5442   84.7361   14.9294 C.2     1  UNL1        0.2294
      3 O          61.1516   85.0745   15.3720 O.2     1  UNL1       -0.2747
      4 C          62.7841   83.5394   14.0573 C.3     1  UNL1        0.1211
      5 C          62.9587   82.1838   14.6753 C.3     1  UNL1        0.0804
      6 N          63.1985   80.9872   13.8033 N.3     1  UNL1       -0.2969
      7 C          63.2637   81.1461   12.3131 C.3     1  UNL1        0.0714
      8 C          63.0891   82.5017   11.6951 C.3     1  UNL1        0.0490
      9 C          62.8492   83.6983   12.5672 C.3     1  UNL1        0.1223
     10 O          62.6041   84.9798   13.3072 O.3     1  UNL1       -0.3492
     11 C          62.4924   86.0839   12.2980 C.3     1  UNL1        0.1686
     12 C          62.6685   85.4848   10.9341 C.ar    1  UNL1        0.0055
     13 C          62.6566   86.0912    9.5623 C.ar    1  UNL1       -0.0021
     14 C          62.8651   85.2233    8.3567 C.ar    1  UNL1       -0.0003
     15 C          63.0856   83.7490    8.5231 C.ar    1  UNL1       -0.0003
     16 C          63.0976   83.1425    9.8950 C.ar    1  UNL1       -0.0023
     17 C          62.8891   84.0103   11.1005 C.ar    1  UNL1        0.0010
     18 H          62.4457   80.3266   13.9963 H       1  UNL1        0.1233
     19 C          65.0898   85.2557   14.9162 C.3     1  UNL1        0.0758
     20 C          66.0279   84.3926   14.1256 C.3     1  UNL1        0.0215
     21 C          66.5638   85.5324   14.9402 C.3     1  UNL1        0.0215
     22 C          63.4573   86.7909   16.2309 C.3     1  UNL1        0.1201
     23 C          63.5792   89.7317   13.5688 C.ar    1  UNL1       -0.0194
     24 C          63.5208   88.3524   14.1554 C.ar    1  UNL1       -0.0067
     25 C          63.5158   88.1702   15.6443 C.ar    1  UNL1        0.0004
     26 C          63.5692   89.3673   16.5465 C.ar    1  UNL1        0.0343
     27 C          63.6276   90.7466   15.9600 C.ar    1  UNL1        0.1381
     28 C          63.6326   90.9288   14.4711 C.ar    1  UNL1        0.0326
     29 C          63.5842   89.9139   12.0799 C.3     1  UNL1        0.0290
     30 C          62.3644   90.4419   11.3849 C.3     1  UNL1        0.0367
     31 C          61.0283   89.8041   11.6267 C.3     1  UNL1        0.1426
     32 C          60.4308   89.1325    9.1892 C.3     1  UNL1        0.1741
     33 O          60.4885   88.8010   10.6509 O.3     1  UNL1       -0.3511
     34 O          63.6810   91.9437   16.8623 O.3     1  UNL1       -0.4728
     35 C          64.9637   92.7042   17.0242 C.3     1  UNL1        0.2373
     36 C          66.0611   92.5476   16.0137 C.3     1  UNL1        0.1894
     37 O          66.1216   93.4601   14.8247 O.3     1  UNL1       -0.3471
     38 C          66.5276   92.9207   13.4853 C.3     1  UNL1        0.1743
@<TRIPOS>BOND
     1    32    33    1
     2    33    31    1
     3    31    30    1
     4    30    29    1
     5    29    23    1
     6    23    24   ar
     7    24    25   ar
     8    25    22    1
     9    22     1    1
    10     1     2   am
    11     2     3    2
    12     4     2    1
    13     4     5    1
    14     5     6    1
    15     6     7    1
    16     7     8    1
    17     9     8    1
    18     9    10    1
    19    10    11    1
    20    11    12    1
    21    12    13   ar
    22    13    14   ar
    23    14    15   ar
    24    15    16   ar
    25    16    17   ar
    26     1    19    1
    27    19    20    1
    28    20    21    1
    29    25    26   ar
    30    26    27   ar
    31    27    34    1
    32    34    35    1
    33    35    36    1
    34    36    37    1
    35    37    38    1
    36    27    28   ar
    37    28    23   ar
    38     9     4    1
    39    17    12   ar
    40    21    19    1
    41    17     9    1
    42     6    18    1
@<TRIPOS>MOLECULE
*****
 38 42 0 0 0
SMALL
GASTEIGER

@<TRIPOS>ATOM
      1 N          63.7441   85.5736   15.3594 N.am    1  UNL1       -0.2770
      2 C          62.5817   84.7211   14.9449 C.2     1  UNL1        0.2294
      3 O          61.1952   85.0722   15.3970 O.2     1  UNL1       -0.2747
      4 C          62.8057   83.5174   14.0783 C.3     1  UNL1        0.1211
      5 C          62.9701   82.1636   14.7030 C.3     1  UNL1        0.0804
      6 N          63.1941   80.9600   13.8364 N.3     1  UNL1       -0.2969
      7 C          63.2537   81.1101   12.3451 C.3     1  UNL1        0.0714
      8 C          63.0892   82.4639   11.7204 C.3     1  UNL1        0.0490
      9 C          62.8653   83.6675   12.5870 C.3     1  UNL1        0.1223
     10 O          62.6361   84.9554   13.3212 O.3     1  UNL1       -0.3492
     11 C          62.5304   86.0550   12.3065 C.3     1  UNL1        0.1686
     12 C          62.6941   85.4467   10.9451 C.ar    1  UNL1        0.0055
     13 C          62.6815   86.0457    9.5700 C.ar    1  UNL1       -0.0021
     14 C          62.8758   85.1693    8.3682 C.ar    1  UNL1       -0.0003
     15 C          63.0828   83.6938    8.5417 C.ar    1  UNL1       -0.0003
     16 C          63.0954   83.0947    9.9168 C.ar    1  UNL1       -0.0023
     17 C          62.9011   83.9711   11.1185 C.ar    1  UNL1        0.0010
     18 H          62.4358   80.3078   14.0366 H       1  UNL1        0.1233
     19 C          65.1306   85.2225   14.9072 C.3     1  UNL1        0.0758
     20 C          66.0572   84.3407   14.1237 C.3     1  UNL1        0.0215
     21 C          66.6055   85.4960   14.9077 C.3     1  UNL1        0.0215
     22 C          63.5202   86.7773   16.2260 C.3     1  UNL1        0.1201
     23 C          63.5711   89.6865   13.5271 C.ar    1  UNL1       -0.0194
     24 C          63.5522   88.3136   14.1310 C.ar    1  UNL1       -0.0067
     25 C          63.5391   88.1502   15.6221 C.ar    1  UNL1        0.0004
     26 C          63.5450   89.3598   16.5092 C.ar    1  UNL1        0.0343
     27 C          63.5640   90.7327   15.9053 C.ar    1  UNL1        0.1381
     28 C          63.5770   90.8961   14.4143 C.ar    1  UNL1        0.0326
     29 C          63.5842   89.8500   12.0361 C.3     1  UNL1        0.0290
     30 C          63.4250   91.2126   11.4296 C.3     1  UNL1        0.0367
     31 C          64.6370   92.0141   11.0574 C.3     1  UNL1        0.1426
     32 C          66.8402   92.7700   12.2081 C.3     1  UNL1        0.1741
     33 O          65.3455   92.8297   12.0980 O.3     1  UNL1       -0.3511
     34 O          63.5699   91.9423   16.7924 O.3     1  UNL1       -0.4728
     35 C          64.8411   92.7091   17.0065 C.3     1  UNL1        0.2373
     36 C          66.0123   92.4888   16.0957 C.3     1  UNL1        0.1894
     37 O          67.3793   92.9499   16.5067 O.3     1  UNL1       -0.3471
     38 C          68.5382   92.7909   15.5679 C.3     1  UNL1        0.1743
@<TRIPOS>BOND
     1    32    33    1
     2    33    31    1
     3    31    30    1
     4    30    29    1
     5    29    23    1
     6    23    24   ar
     7    24    25   ar
     8    25    22    1
     9    22     1    1
    10     1     2   am
    11     2     3    2
    12     4     2    1
    13     4     5    1
    14     5     6    1
    15     6     7    1
    16     7     8    1
    17     9     8    1
    18     9    10    1
    19    10    11    1
    20    11    12    1
    21    12    13   ar
    22    13    14   ar
    23    14    15   ar
    24    15    16   ar
    25    16    17   ar
    26     1    19    1
    27    19    20    1
    28    20    21    1
    29    25    26   ar
    30    26    27   ar
    31    27    34    1
    32    34    35    1
    33    35    36    1
    34    36    37    1
    35    37    38    1
    36    27    28   ar
    37    28    23   ar
    38     9     4    1
    39    17    12   ar
    40    21    19    1
    41    17     9    1
    42     6    18    1
@<TRIPOS>MOLECULE
*****
 38 42 0 0 0
SMALL
GASTEIGER

@<TRIPOS>ATOM
      1 N          62.5441   87.9561   12.6161 N.am    1  UNL1       -0.2770
      2 C          62.3665   89.4429   12.7057 C.2     1  UNL1        0.2294
      3 O          61.3675   90.1333   11.8252 O.2     1  UNL1       -0.2747
      4 C          63.1880   90.2392   13.6758 C.3     1  UNL1        0.1211
      5 C          63.0373   90.0108   15.1506 C.3     1  UNL1        0.0804
      6 N          63.8588   90.8071   16.1206 N.3     1  UNL1       -0.2969
      7 C          64.8310   91.8318   15.6159 C.3     1  UNL1        0.0714
      8 C          64.9817   92.0602   14.1411 C.3     1  UNL1        0.0490
      9 C          64.1602   91.2639   13.1710 C.3     1  UNL1        0.1223
     10 O          63.4110   90.5476   12.0867 O.3     1  UNL1       -0.3492
     11 C          63.8744   91.0896   10.7671 C.3     1  UNL1        0.1686
     12 C          64.9100   92.1411   11.0357 C.ar    1  UNL1        0.0055
     13 C          65.7149   93.0142   10.1195 C.ar    1  UNL1       -0.0021
     14 C          66.6966   93.9952   10.6889 C.ar    1  UNL1       -0.0003
     15 C          66.8732   94.1029   12.1746 C.ar    1  UNL1       -0.0003
     16 C          66.0683   93.2296   13.0909 C.ar    1  UNL1       -0.0023
     17 C          65.0867   92.2487   12.5215 C.ar    1  UNL1        0.0010
     18 H          64.3963   90.1371   16.6708 H       1  UNL1        0.1233
     19 C          63.5432   87.2657   13.4966 C.3     1  UNL1        0.0758
     20 C          64.6282   87.3316   14.5303 C.3     1  UNL1        0.0215
     21 C          64.1886   86.0040   13.9880 C.3     1  UNL1        0.0215
     22 C          61.7227   87.1598   11.6460 C.3     1  UNL1        0.1201
     23 C          63.4247   83.6435   10.9468 C.ar    1  UNL1       -0.0194
     24 C          62.8099   84.8003   11.6774 C.ar    1  UNL1       -0.0067
     25 C          62.3374   86.0029   10.9154 C.ar    1  UNL1        0.0004
     26 C          62.4797   86.0486    9.4229 C.ar    1  UNL1        0.0343
     27 C          63.0944   84.8918    8.6923 C.ar    1  UNL1        0.1381
     28 C          63.5669   83.6892    9.4542 C.ar    1  UNL1        0.0326
     29 C          63.8971   82.4409   11.7087 C.3     1  UNL1        0.0290
     30 C          62.9683   81.2856   11.9377 C.3     1  UNL1        0.0367
     31 C          62.6350   80.8570   13.3361 C.3     1  UNL1        0.1426
     32 C          62.3800   82.9241   14.8891 C.3     1  UNL1        0.1741
     33 O          63.1090   81.6713   14.5032 O.3     1  UNL1       -0.3511
     34 O          63.2367   84.9376    7.1997 O.3     1  UNL1       -0.4728
     35 C          62.1313   84.4249    6.3249 C.3     1  UNL1        0.2373
     36 C          60.8740   85.2259    6.1582 C.3     1  UNL1        0.1894
     37 O          59.9065   85.3489    7.2979 O.3     1  UNL1       -0.3471
     38 C          59.2769   86.6746    7.6074 C.3     1  UNL1        0.1743
@<TRIPOS>BOND
     1    32    33    1
     2    33    31    1
     3    31    30    1
     4    30    29    1
     5    29    23    1
     6    23    24   ar
     7    24    25   ar
     8    25    22    1
     9    22     1    1
    10     1     2   am
    11     2     3    2
    12     4     2    1
    13     4     5    1
    14     5     6    1
    15     6     7    1
    16     7     8    1
    17     9     8    1
    18     9    10    1
    19    10    11    1
    20    11    12    1
    21    12    13   ar
    22    13    14   ar
    23    14    15   ar
    24    15    16   ar
    25    16    17   ar
    26     1    19    1
    27    19    20    1
    28    20    21    1
    29    25    26   ar
    30    26    27   ar
    31    27    34    1
    32    34    35    1
    33    35    36    1
    34    36    37    1
    35    37    38    1
    36    27    28   ar
    37    28    23   ar
    38     9     4    1
    39    17    12   ar
    40    21    19    1
    41    17     9    1
    42     6    18    1
@<TRIPOS>MOLECULE
*****
 38 42 0 0 0
SMALL
GASTEIGER

@<TRIPOS>ATOM
      1 N          63.6882   85.7172   15.3435 N.am    1  UNL1       -0.2770
      2 C          62.5527   84.8135   14.9640 C.2     1  UNL1        0.2294
      3 O          61.1535   85.1486   15.3883 O.2     1  UNL1       -0.2747
      4 C          62.8164   83.5748   14.1603 C.3     1  UNL1        0.1211
      5 C          63.0014   82.2569   14.8523 C.3     1  UNL1        0.0804
      6 N          63.2652   81.0183   14.0486 N.3     1  UNL1       -0.2969
      7 C          63.3439   81.0974   12.5527 C.3     1  UNL1        0.0714
      8 C          63.1589   82.4153   11.8607 C.3     1  UNL1        0.0490
      9 C          62.8951   83.6539   12.6644 C.3     1  UNL1        0.1223
     10 O          62.6264   84.9703   13.3318 O.3     1  UNL1       -0.3492
     11 C          62.5116   86.0168   12.2633 C.3     1  UNL1        0.1686
     12 C          62.7093   85.3473   10.9356 C.ar    1  UNL1        0.0055
     13 C          62.7041   85.8787    9.5329 C.ar    1  UNL1       -0.0021
     14 C          62.9360   84.9499    8.3781 C.ar    1  UNL1       -0.0003
     15 C          63.1730   83.4896    8.6260 C.ar    1  UNL1       -0.0003
     16 C          63.1782   82.9581   10.0288 C.ar    1  UNL1       -0.0023
     17 C          62.9464   83.8870   11.1835 C.ar    1  UNL1        0.0010
     18 H          62.5187   80.3593   14.2697 H       1  UNL1        0.1233
     19 C          65.0874   85.3822   14.9192 C.3     1  UNL1        0.0758
     20 C          66.5627   85.6455   14.9837 C.3     1  UNL1        0.0215
     21 C          66.0356   84.5384   14.1199 C.3     1  UNL1        0.0215
     22 C          63.4245   86.9559   16.1472 C.3     1  UNL1        0.1201
     23 C          63.9824   90.8639   15.7385 C.ar    1  UNL1       -0.0194
     24 C          63.8294   89.5125   16.3713 C.ar    1  UNL1       -0.0067
     25 C          63.5775   88.3073   15.5145 C.ar    1  UNL1        0.0004
     26 C          63.4787   88.4535   14.0249 C.ar    1  UNL1        0.0343
     27 C          63.6318   89.8048   13.3921 C.ar    1  UNL1        0.1381
     28 C          63.8836   91.0100   14.2489 C.ar    1  UNL1        0.0326
     29 C          64.2342   92.0690   16.5953 C.3     1  UNL1        0.0290
     30 C          65.6188   92.6354   16.7046 C.3     1  UNL1        0.0367
     31 C          66.4744   92.7666   15.4794 C.3     1  UNL1        0.1426
     32 C          66.3865   93.5280   12.9971 C.3     1  UNL1        0.1741
     33 O          66.1576   93.8125   14.4519 O.3     1  UNL1       -0.3511
     34 O          63.5330   89.9510   11.9025 O.3     1  UNL1       -0.4728
     35 C          62.3752   89.3466   11.1648 C.3     1  UNL1        0.2373
     36 C          61.4436   90.2244   10.3828 C.3     1  UNL1        0.1894
     37 O          60.1301   89.6832    9.9014 O.3     1  UNL1       -0.3471
     38 C          60.0541   88.9521    8.5939 C.3     1  UNL1        0.1743
@<TRIPOS>BOND
     1    32    33    1
     2    33    31    1
     3    31    30    1
     4    30    29    1
     5    29    23    1
     6    23    24   ar
     7    24    25   ar
     8    25    22    1
     9    22     1    1
    10     1     2   am
    11     2     3    2
    12     4     2    1
    13     4     5    1
    14     5     6    1
    15     6     7    1
    16     7     8    1
    17     9     8    1
    18     9    10    1
    19    10    11    1
    20    11    12    1
    21    12    13   ar
    22    13    14   ar
    23    14    15   ar
    24    15    16   ar
    25    16    17   ar
    26     1    19    1
    27    19    20    1
    28    20    21    1
    29    25    26   ar
    30    26    27   ar
    31    27    34    1
    32    34    35    1
    33    35    36    1
    34    36    37    1
    35    37    38    1
    36    27    28   ar
    37    28    23   ar
    38     9     4    1
    39    17    12   ar
    40    21    19    1
    41    17     9    1
    42     6    18    1
@<TRIPOS>MOLECULE
*****
 38 42 0 0 0
SMALL
GASTEIGER

@<TRIPOS>ATOM
      1 N          63.6675   85.5345   15.3547 N.am    1  UNL1       -0.2770
      2 C          62.5122   84.6761   14.9323 C.2     1  UNL1        0.2294
      3 O          61.1215   85.0175   15.3788 O.2     1  UNL1       -0.2747
      4 C          62.7477   83.4762   14.0635 C.3     1  UNL1        0.1211
      5 C          62.9065   82.1201   14.6845 C.3     1  UNL1        0.0804
      6 N          63.1420   80.9202   13.8157 N.3     1  UNL1       -0.2969
      7 C          63.2187   81.0765   12.3258 C.3     1  UNL1        0.0714
      8 C          63.0599   82.4326   11.7048 C.3     1  UNL1        0.0490
      9 C          62.8244   83.6324   12.5736 C.3     1  UNL1        0.1223
     10 O          62.5853   84.9171   13.3103 O.3     1  UNL1       -0.3492
     11 C          62.4899   86.0207   12.2989 C.3     1  UNL1        0.1686
     12 C          62.6702   85.4182   10.9370 C.ar    1  UNL1        0.0055
     13 C          62.6728   86.0228    9.5644 C.ar    1  UNL1       -0.0021
     14 C          62.8821   85.1515    8.3614 C.ar    1  UNL1       -0.0003
     15 C          63.0888   83.6755    8.5312 C.ar    1  UNL1       -0.0003
     16 C          63.0862   83.0708    9.9040 C.ar    1  UNL1       -0.0023
     17 C          62.8769   83.9421   11.1069 C.ar    1  UNL1        0.0010
     18 H          62.3822   80.2663   14.0044 H       1  UNL1        0.1233
     19 C          65.0583   85.1931   14.9082 C.3     1  UNL1        0.0758
     20 C          66.5306   85.4798   14.9107 C.3     1  UNL1        0.0215
     21 C          65.9947   84.3149   14.1324 C.3     1  UNL1        0.0215
     22 C          63.4321   86.7344   16.2235 C.3     1  UNL1        0.1201
     23 C          63.7859   90.6803   15.9895 C.ar    1  UNL1       -0.0194
     24 C          63.6509   89.3009   16.5631 C.ar    1  UNL1       -0.0067
     25 C          63.5670   88.1138   15.6499 C.ar    1  UNL1        0.0004
     26 C          63.6181   88.3062   14.1632 C.ar    1  UNL1        0.0343
     27 C          63.7530   89.6856   13.5896 C.ar    1  UNL1        0.1381
     28 C          63.8369   90.8726   14.5027 C.ar    1  UNL1        0.0326
     29 C          63.8697   91.8674   16.9026 C.3     1  UNL1        0.0290
     30 C          65.0275   92.8151   16.7961 C.3     1  UNL1        0.0367
     31 C          66.2026   92.4694   15.9303 C.3     1  UNL1        0.1426
     32 C          68.7994   92.4145   15.9867 C.3     1  UNL1        0.1741
     33 O          67.5127   93.1724   16.1284 O.3     1  UNL1       -0.3511
     34 O          63.8041   89.8779   12.1028 O.3     1  UNL1       -0.4728
     35 C          63.5434   91.2319   11.5124 C.3     1  UNL1        0.2373
     36 C          64.6920   92.1048   11.1015 C.3     1  UNL1        0.1894
     37 O          65.7992   92.3933   12.0715 O.3     1  UNL1       -0.3471
     38 C          66.2308   93.8086   12.3177 C.3     1  UNL1        0.1743
@<TRIPOS>BOND
     1    32    33    1
     2    33    31    1
     3    31    30    1
     4    30    29    1
     5    29    23    1
     6    23    24   ar
     7    24    25   ar
     8    25    22    1
     9    22     1    1
    10     1     2   am
    11     2     3    2
    12     4     2    1
    13     4     5    1
    14     5     6    1
    15     6     7    1
    16     7     8    1
    17     9     8    1
    18     9    10    1
    19    10    11    1
    20    11    12    1
    21    12    13   ar
    22    13    14   ar
    23    14    15   ar
    24    15    16   ar
    25    16    17   ar
    26     1    19    1
    27    19    20    1
    28    20    21    1
    29    25    26   ar
    30    26    27   ar
    31    27    34    1
    32    34    35    1
    33    35    36    1
    34    36    37    1
    35    37    38    1
    36    27    28   ar
    37    28    23   ar
    38     9     4    1
    39    17    12   ar
    40    21    19    1
    41    17     9    1
    42     6    18    1
