@<TRIPOS>MOLECULE
*****
 24 27 0 0 0
SMALL
GASTEIGER

@<TRIPOS>ATOM
      1 C          64.0278   87.6091   13.7878 C.2     1  UNL1        0.3563
      2 N          63.1767   87.4211   12.5669 N.2     1  UNL1       -0.0039
      3 C          62.6839   88.6155   11.8051 C.2     1  UNL1        0.3159
      4 C          63.0420   89.9979   12.2640 C.3     1  UNL1        0.2333
      5 C          63.8931   90.1860   13.4848 C.2     1  UNL1        0.3644
      6 O          64.2512   91.5684   13.9437 O.2     1  UNL1       -0.2422
      7 N          64.3860   88.9915   14.2467 N.am    1  UNL1        0.0288
      8 N          61.8327   88.4275   10.5843 N.pl3   1  UNL1       -0.1888
      9 C          61.0796   89.5901   10.0088 C.3     1  UNL1        0.2343
     10 C          60.2285   89.4022    8.7881 C.3     1  UNL1        0.1929
     11 O          60.1306   88.0517    8.1427 O.3     1  UNL1       -0.3449
     12 C          60.8838   86.8891    8.7182 C.3     1  UNL1        0.1929
     13 C          61.7349   87.0770    9.9389 C.3     1  UNL1        0.2343
     14 C          64.5207   86.4147   14.5496 C.3     1  UNL1        0.1852
     15 C          62.1595   84.8047   16.1252 C.3     1  UNL1        0.1316
     16 N          62.9242   84.3058   14.9351 N.ar    1  UNL1       -0.3124
     17 C          64.0095   85.0458   14.2109 C.ar    1  UNL1        0.1329
     18 N          64.4938   84.1765   13.0884 N.ar    1  UNL1       -0.2303
     19 C          63.7078   82.8993   13.1190 C.ar    1  UNL1        0.0983
     20 C          63.7501   81.6739   12.2550 C.ar    1  UNL1        0.0206
     21 C          62.8223   80.5283   12.5323 C.ar    1  UNL1        0.0016
     22 C          61.8523   80.6082   13.6736 C.ar    1  UNL1        0.0016
     23 C          61.8099   81.8336   14.5376 C.ar    1  UNL1        0.0188
     24 C          62.7377   82.9792   14.2602 C.ar    1  UNL1        0.0787
@<TRIPOS>BOND
     1    15    16    1
     2    16    17   ar
     3    17    14    1
     4    14     1    1
     5     1     2    1
     6     2     3    2
     7     3     8    1
     8     8     9    1
     9     9    10    1
    10    10    11    1
    11    11    12    1
    12    12    13    1
    13     3     4    1
    14     4     5    1
    15     5     6    2
    16     5     7    1
    17    17    18   ar
    18    18    19   ar
    19    19    20   ar
    20    20    21   ar
    21    21    22   ar
    22    22    23   ar
    23    23    24   ar
    24    24    16   ar
    25     7     1    2
    26    24    19   ar
    27    13     8    1
@<TRIPOS>MOLECULE
*****
 24 27 0 0 0
SMALL
GASTEIGER

@<TRIPOS>ATOM
      1 C          62.1080   87.3367   10.8622 C.2     1  UNL1        0.3563
      2 N          62.2461   86.2834   11.9212 N.2     1  UNL1       -0.0039
      3 C          62.5880   84.8743   11.5375 C.2     1  UNL1        0.3159
      4 C          62.7920   84.5184   10.0946 C.3     1  UNL1        0.2333
      5 C          62.6540   85.5716    9.0356 C.2     1  UNL1        0.3644
      6 O          62.8579   85.2157    7.5928 O.2     1  UNL1       -0.2422
      7 N          62.3120   86.9808    9.4194 N.am    1  UNL1        0.0288
      8 N          62.7261   83.8209   12.5965 N.pl3   1  UNL1       -0.1888
      9 C          62.8883   82.3817   12.2062 C.3     1  UNL1        0.2343
     10 C          63.0264   81.3284   13.2652 C.3     1  UNL1        0.1929
     11 O          63.0021   81.7143   14.7144 O.3     1  UNL1       -0.3449
     12 C          62.8399   83.1536   15.1047 C.3     1  UNL1        0.1929
     13 C          62.7018   84.2069   14.0458 C.3     1  UNL1        0.2343
     14 C          61.7660   88.7459   11.2460 C.3     1  UNL1        0.1852
     15 C          63.2037   91.4062   10.0189 C.3     1  UNL1        0.1316
     16 N          63.4427   90.8234   11.3802 N.ar    1  UNL1       -0.3124
     17 C          62.7819   89.6006   11.9442 C.ar    1  UNL1        0.1329
     18 N          63.3153   89.3826   13.3291 N.ar    1  UNL1       -0.2303
     19 C          64.3057   90.4706   13.6211 C.ar    1  UNL1        0.0983
     20 C          65.1461   90.7655   14.8280 C.ar    1  UNL1        0.0206
     21 C          66.0651   91.9509   14.8305 C.ar    1  UNL1        0.0016
     22 C          66.1439   92.8414   13.6260 C.ar    1  UNL1        0.0016
     23 C          65.3035   92.5465   12.4190 C.ar    1  UNL1        0.0188
     24 C          64.3845   91.3611   12.4166 C.ar    1  UNL1        0.0787
@<TRIPOS>BOND
     1    15    16    1
     2    16    17   ar
     3    17    14    1
     4    14     1    1
     5     1     2    1
     6     2     3    2
     7     3     8    1
     8     8     9    1
     9     9    10    1
    10    10    11    1
    11    11    12    1
    12    12    13    1
    13     3     4    1
    14     4     5    1
    15     5     6    2
    16     5     7    1
    17    17    18   ar
    18    18    19   ar
    19    19    20   ar
    20    20    21   ar
    21    21    22   ar
    22    22    23   ar
    23    23    24   ar
    24    24    16   ar
    25     7     1    2
    26    24    19   ar
    27    13     8    1
@<TRIPOS>MOLECULE
*****
 24 27 0 0 0
SMALL
GASTEIGER

@<TRIPOS>ATOM
      1 C          62.0288   87.8435   10.8782 C.2     1  UNL1        0.3563
      2 N          62.3798   86.9072   11.9963 N.2     1  UNL1       -0.0039
      3 C          62.6994   85.4719   11.7002 C.2     1  UNL1        0.3159
      4 C          62.6679   84.9728   10.2860 C.3     1  UNL1        0.2333
      5 C          62.3169   85.9091    9.1679 C.2     1  UNL1        0.3644
      6 O          62.2854   85.4101    7.7537 O.2     1  UNL1       -0.2422
      7 N          61.9973   87.3445    9.4640 N.am    1  UNL1        0.0288
      8 N          63.0504   84.5355   12.8183 N.pl3   1  UNL1       -0.1888
      9 C          62.7274   83.0753   12.7030 C.3     1  UNL1        0.2343
     10 C          63.0784   82.1389   13.8210 C.3     1  UNL1        0.1929
     11 O          63.7524   82.6628   15.0543 O.3     1  UNL1       -0.3449
     12 C          64.0755   84.1231   15.1696 C.3     1  UNL1        0.1929
     13 C          63.7245   85.0594   14.0516 C.3     1  UNL1        0.2343
     14 C          61.7093   89.2788   11.1743 C.3     1  UNL1        0.1852
     15 C          63.2291   89.7954   14.0156 C.3     1  UNL1        0.1316
     16 N          63.5167   90.4972   12.7215 N.ar    1  UNL1       -0.3124
     17 C          62.8182   90.2598   11.4155 C.ar    1  UNL1        0.1329
     18 N          63.4232   91.1754   10.3930 N.ar    1  UNL1       -0.2303
     19 C          64.4957   91.9788   11.0671 C.ar    1  UNL1        0.0983
     20 C          65.4271   93.0379   10.5564 C.ar    1  UNL1        0.0206
     21 C          66.4163   93.6778   11.4848 C.ar    1  UNL1        0.0016
     22 C          66.4741   93.2586   12.9239 C.ar    1  UNL1        0.0016
     23 C          65.5427   92.1995   13.4346 C.ar    1  UNL1        0.0188
     24 C          64.5535   91.5596   12.5062 C.ar    1  UNL1        0.0787
@<TRIPOS>BOND
     1    15    16    1
     2    16    17   ar
     3    17    14    1
     4    14     1    1
     5     1     2    1
     6     2     3    2
     7     3     8    1
     8     8     9    1
     9     9    10    1
    10    10    11    1
    11    11    12    1
    12    12    13    1
    13     3     4    1
    14     4     5    1
    15     5     6    2
    16     5     7    1
    17    17    18   ar
    18    18    19   ar
    19    19    20   ar
    20    20    21   ar
    21    21    22   ar
    22    22    23   ar
    23    23    24   ar
    24    24    16   ar
    25     7     1    2
    26    24    19   ar
    27    13     8    1
@<TRIPOS>MOLECULE
*****
 24 27 0 0 0
SMALL
GASTEIGER

@<TRIPOS>ATOM
      1 C          60.9117   88.2960   10.9374 C.2     1  UNL1        0.3563
      2 N          61.7937   87.1633   11.3725 N.2     1  UNL1       -0.0039
      3 C          61.8646   85.9100   10.5515 C.2     1  UNL1        0.3159
      4 C          61.0536   85.7892    9.2954 C.3     1  UNL1        0.2333
      5 C          60.1717   86.9218    8.8603 C.2     1  UNL1        0.3644
      6 O          59.3607   86.8010    7.6043 O.2     1  UNL1       -0.2422
      7 N          60.1007   88.1753    9.6813 N.am    1  UNL1        0.0288
      8 N          62.7466   84.7773   10.9866 N.pl3   1  UNL1       -0.1888
      9 C          62.8417   84.4162   12.4394 C.3     1  UNL1        0.2343
     10 C          63.7236   83.2836   12.8745 C.3     1  UNL1        0.1929
     11 O          64.5105   82.5121   11.8568 O.3     1  UNL1       -0.3449
     12 C          64.4154   82.8732   10.4040 C.3     1  UNL1        0.1929
     13 C          63.5335   84.0059    9.9689 C.3     1  UNL1        0.2343
     14 C          60.8408   89.5494   11.7583 C.3     1  UNL1        0.1852
     15 C          63.0858   91.3153   10.1801 C.3     1  UNL1        0.1316
     16 N          63.1216   90.9374   11.6313 N.ar    1  UNL1       -0.3124
     17 C          62.0897   90.1257   12.3567 C.ar    1  UNL1        0.1329
     18 N          62.5260   89.9916   13.7855 N.ar    1  UNL1       -0.2303
     19 C          63.8275   90.7203   13.9432 C.ar    1  UNL1        0.0983
     20 C          64.7250   90.9272   15.1271 C.ar    1  UNL1        0.0206
     21 C          65.9907   91.7186   14.9796 C.ar    1  UNL1        0.0016
     22 C          66.3588   92.3032   13.6481 C.ar    1  UNL1        0.0016
     23 C          65.4613   92.0963   12.4642 C.ar    1  UNL1        0.0188
     24 C          64.1957   91.3049   12.6118 C.ar    1  UNL1        0.0787
@<TRIPOS>BOND
     1    15    16    1
     2    16    17   ar
     3    17    14    1
     4    14     1    1
     5     1     2    1
     6     2     3    2
     7     3     8    1
     8     8     9    1
     9     9    10    1
    10    10    11    1
    11    11    12    1
    12    12    13    1
    13     3     4    1
    14     4     5    1
    15     5     6    2
    16     5     7    1
    17    17    18   ar
    18    18    19   ar
    19    19    20   ar
    20    20    21   ar
    21    21    22   ar
    22    22    23   ar
    23    23    24   ar
    24    24    16   ar
    25     7     1    2
    26    24    19   ar
    27    13     8    1
@<TRIPOS>MOLECULE
*****
 24 27 0 0 0
SMALL
GASTEIGER

@<TRIPOS>ATOM
      1 C          64.7410   91.2574   13.5128 C.2     1  UNL1        0.3563
      2 N          65.0994   92.0901   12.3177 N.2     1  UNL1       -0.0039
      3 C          66.4413   92.7561   12.2429 C.2     1  UNL1        0.3159
      4 C          67.4249   92.5894   13.3631 C.3     1  UNL1        0.2333
      5 C          67.0665   91.7568   14.5581 C.2     1  UNL1        0.3644
      6 O          68.0500   91.5901   15.6783 O.2     1  UNL1       -0.2422
      7 N          65.7245   91.0907   14.6330 N.am    1  UNL1        0.0288
      8 N          66.7998   93.5889   11.0478 N.pl3   1  UNL1       -0.1888
      9 C          67.5281   92.9684    9.8925 C.3     1  UNL1        0.2343
     10 C          67.8866   93.8011    8.6975 C.3     1  UNL1        0.1929
     11 O          67.5167   95.2542    8.6577 O.3     1  UNL1       -0.3449
     12 C          66.7883   95.8746    9.8129 C.3     1  UNL1        0.1929
     13 C          66.4299   95.0420   11.0080 C.3     1  UNL1        0.2343
     14 C          63.3990   90.5914   13.5876 C.3     1  UNL1        0.1852
     15 C          62.1364   90.7441   10.5823 C.3     1  UNL1        0.1316
     16 N          62.5112   89.4921   11.3186 N.ar    1  UNL1       -0.3124
     17 C          63.0916   89.4220   12.7000 C.ar    1  UNL1        0.1329
     18 N          63.3105   87.9770   13.0378 N.ar    1  UNL1       -0.2303
     19 C          62.8655   87.1542   11.8653 C.ar    1  UNL1        0.0983
     20 C          62.8462   85.6732   11.6279 C.ar    1  UNL1        0.0206
     21 C          62.3329   85.1287   10.3279 C.ar    1  UNL1        0.0016
     22 C          61.8389   86.0651    9.2653 C.ar    1  UNL1        0.0016
     23 C          61.8582   87.5461    9.5027 C.ar    1  UNL1        0.0188
     24 C          62.3714   88.0906   10.8027 C.ar    1  UNL1        0.0787
@<TRIPOS>BOND
     1    15    16    1
     2    16    17   ar
     3    17    14    1
     4    14     1    1
     5     1     2    1
     6     2     3    2
     7     3     8    1
     8     8     9    1
     9     9    10    1
    10    10    11    1
    11    11    12    1
    12    12    13    1
    13     3     4    1
    14     4     5    1
    15     5     6    2
    16     5     7    1
    17    17    18   ar
    18    18    19   ar
    19    19    20   ar
    20    20    21   ar
    21    21    22   ar
    22    22    23   ar
    23    23    24   ar
    24    24    16   ar
    25     7     1    2
    26    24    19   ar
    27    13     8    1
@<TRIPOS>MOLECULE
*****
 24 27 0 0 0
SMALL
GASTEIGER

@<TRIPOS>ATOM
      1 C          64.0715   87.9178   13.8665 C.2     1  UNL1        0.3563
      2 N          64.7819   89.2079   14.1513 N.2     1  UNL1       -0.0039
      3 C          64.5338   90.4076   13.2858 C.2     1  UNL1        0.3159
      4 C          63.5754   90.3173   12.1354 C.3     1  UNL1        0.2333
      5 C          62.8651   89.0273   11.8506 C.2     1  UNL1        0.3644
      6 O          61.9066   88.9370   10.7003 O.2     1  UNL1       -0.2422
      7 N          63.1131   87.8275   12.7161 N.am    1  UNL1        0.0288
      8 N          65.2442   91.6977   13.5706 N.pl3   1  UNL1       -0.1888
      9 C          65.4578   92.6950   12.4707 C.3     1  UNL1        0.2343
     10 C          66.1681   93.9850   12.7554 C.3     1  UNL1        0.1929
     11 O          66.6649   94.2778   14.1401 O.3     1  UNL1       -0.3449
     12 C          66.4513   93.2806   15.2401 C.3     1  UNL1        0.1929
     13 C          65.7410   91.9905   14.9553 C.3     1  UNL1        0.2343
     14 C          64.3195   86.7181   14.7320 C.3     1  UNL1        0.1852
     15 C          62.2097   84.7901   16.3072 C.3     1  UNL1        0.1316
     16 N          62.8905   84.4760   15.0080 N.ar    1  UNL1       -0.3124
     17 C          63.8603   85.3622   14.2840 C.ar    1  UNL1        0.1329
     18 N          64.2902   84.6544   13.0333 N.ar    1  UNL1       -0.2303
     19 C          63.5861   83.3308   12.9844 C.ar    1  UNL1        0.0983
     20 C          63.6209   82.2118   11.9862 C.ar    1  UNL1        0.0206
     21 C          62.7907   80.9824   12.2084 C.ar    1  UNL1        0.0016
     22 C          61.9257   80.8722   13.4289 C.ar    1  UNL1        0.0016
     23 C          61.8909   81.9912   14.4271 C.ar    1  UNL1        0.0188
     24 C          62.7211   83.2206   14.2048 C.ar    1  UNL1        0.0787
@<TRIPOS>BOND
     1    15    16    1
     2    16    17   ar
     3    17    14    1
     4    14     1    1
     5     1     2    1
     6     2     3    2
     7     3     8    1
     8     8     9    1
     9     9    10    1
    10    10    11    1
    11    11    12    1
    12    12    13    1
    13     3     4    1
    14     4     5    1
    15     5     6    2
    16     5     7    1
    17    17    18   ar
    18    18    19   ar
    19    19    20   ar
    20    20    21   ar
    21    21    22   ar
    22    22    23   ar
    23    23    24   ar
    24    24    16   ar
    25     7     1    2
    26    24    19   ar
    27    13     8    1
@<TRIPOS>MOLECULE
*****
 24 27 0 0 0
SMALL
GASTEIGER

@<TRIPOS>ATOM
      1 C          64.4740   91.2200   13.0035 C.2     1  UNL1        0.3563
      2 N          64.8642   92.2241   11.9597 N.2     1  UNL1       -0.0039
      3 C          66.1830   92.9322   12.0561 C.2     1  UNL1        0.3159
      4 C          67.1116   92.6362   13.1963 C.3     1  UNL1        0.2333
      5 C          66.7214   91.6322   14.2401 C.2     1  UNL1        0.3644
      6 O          67.6500   91.3362   15.3803 O.2     1  UNL1       -0.2422
      7 N          65.4026   90.9240   14.1437 N.am    1  UNL1        0.0288
      8 N          66.5733   93.9364   11.0123 N.pl3   1  UNL1       -0.1888
      9 C          66.3079   95.3953   11.2388 C.3     1  UNL1        0.2343
     10 C          66.6981   96.3994   10.1950 C.3     1  UNL1        0.1929
     11 O          67.3537   95.9447    8.9248 O.3     1  UNL1       -0.3449
     12 C          67.6190   94.4858    8.6984 C.3     1  UNL1        0.1929
     13 C          67.2288   93.4817    9.7421 C.3     1  UNL1        0.2343
     14 C          63.1552   90.5119   12.9070 C.3     1  UNL1        0.1852
     15 C          61.8994   89.0280   10.2858 C.3     1  UNL1        0.1316
     16 N          62.5372   88.3498   11.4619 N.ar    1  UNL1       -0.3124
     17 C          63.1144   89.0318   12.6667 C.ar    1  UNL1        0.1329
     18 N          63.6436   87.9739   13.5891 N.ar    1  UNL1       -0.2303
     19 C          63.3935   86.6381   12.9543 C.ar    1  UNL1        0.0983
     20 C          63.7001   85.2402   13.4036 C.ar    1  UNL1        0.0206
     21 C          63.3229   84.0746   12.5382 C.ar    1  UNL1        0.0016
     22 C          62.6390   84.3069   11.2235 C.ar    1  UNL1        0.0016
     23 C          62.3325   85.7047   10.7742 C.ar    1  UNL1        0.0188
     24 C          62.7097   86.8703   11.6396 C.ar    1  UNL1        0.0787
@<TRIPOS>BOND
     1    15    16    1
     2    16    17   ar
     3    17    14    1
     4    14     1    1
     5     1     2    1
     6     2     3    2
     7     3     8    1
     8     8     9    1
     9     9    10    1
    10    10    11    1
    11    11    12    1
    12    12    13    1
    13     3     4    1
    14     4     5    1
    15     5     6    2
    16     5     7    1
    17    17    18   ar
    18    18    19   ar
    19    19    20   ar
    20    20    21   ar
    21    21    22   ar
    22    22    23   ar
    23    23    24   ar
    24    24    16   ar
    25     7     1    2
    26    24    19   ar
    27    13     8    1
@<TRIPOS>MOLECULE
*****
 24 27 0 0 0
SMALL
GASTEIGER

@<TRIPOS>ATOM
      1 C          64.6805   91.3912   14.0861 C.2     1  UNL1        0.3563
      2 N          65.1628   91.8044   12.7272 N.2     1  UNL1       -0.0039
      3 C          66.3389   92.7262   12.5970 C.2     1  UNL1        0.3159
      4 C          67.0328   93.2349   13.8258 C.3     1  UNL1        0.2333
      5 C          66.5505   92.8217   15.1847 C.2     1  UNL1        0.3644
      6 O          67.2443   93.3303   16.4135 O.2     1  UNL1       -0.2422
      7 N          65.3743   91.8998   15.3149 N.am    1  UNL1        0.0288
      8 N          66.8213   93.1395   11.2381 N.pl3   1  UNL1       -0.1888
      9 C          66.3637   94.4380   10.6427 C.3     1  UNL1        0.2343
     10 C          66.8460   94.8512    9.2838 C.3     1  UNL1        0.1929
     11 O          67.7859   93.9659    8.5204 O.3     1  UNL1       -0.3449
     12 C          68.2435   92.6674    9.1158 C.3     1  UNL1        0.1929
     13 C          67.7612   92.2542   10.4746 C.3     1  UNL1        0.2343
     14 C          63.5044   90.4694   14.2162 C.3     1  UNL1        0.1852
     15 C          63.8628   87.3325   13.3910 C.3     1  UNL1        0.1316
     16 N          63.0968   88.3654   12.6187 N.ar    1  UNL1       -0.3124
     17 C          62.9320   89.8072   12.9980 C.ar    1  UNL1        0.1329
     18 N          62.0945   90.4706   11.9452 N.ar    1  UNL1       -0.2303
     19 C          61.7416   89.4388   10.9153 C.ar    1  UNL1        0.0983
     20 C          60.9362   89.5159    9.6522 C.ar    1  UNL1        0.0206
     21 C          60.7504   88.2919    8.8054 C.ar    1  UNL1        0.0016
     22 C          61.3698   86.9908    9.2216 C.ar    1  UNL1        0.0016
     23 C          62.1752   86.9136   10.4847 C.ar    1  UNL1        0.0188
     24 C          62.3611   88.1376   11.3315 C.ar    1  UNL1        0.0787
@<TRIPOS>BOND
     1    15    16    1
     2    16    17   ar
     3    17    14    1
     4    14     1    1
     5     1     2    1
     6     2     3    2
     7     3     8    1
     8     8     9    1
     9     9    10    1
    10    10    11    1
    11    11    12    1
    12    12    13    1
    13     3     4    1
    14     4     5    1
    15     5     6    2
    16     5     7    1
    17    17    18   ar
    18    18    19   ar
    19    19    20   ar
    20    20    21   ar
    21    21    22   ar
    22    22    23   ar
    23    23    24   ar
    24    24    16   ar
    25     7     1    2
    26    24    19   ar
    27    13     8    1
@<TRIPOS>MOLECULE
*****
 24 27 0 0 0
SMALL
GASTEIGER

@<TRIPOS>ATOM
      1 C          64.4584   91.3842   13.8760 C.2     1  UNL1        0.3563
      2 N          64.9901   91.9577   12.5959 N.2     1  UNL1       -0.0039
      3 C          66.1717   92.8813   12.6217 C.2     1  UNL1        0.3159
      4 C          66.8216   93.2315   13.9275 C.3     1  UNL1        0.2333
      5 C          66.2899   92.6581   15.2075 C.2     1  UNL1        0.3644
      6 O          66.9398   93.0083   16.5132 O.2     1  UNL1       -0.2422
      7 N          65.1082   91.7344   15.1817 N.am    1  UNL1        0.0288
      8 N          66.7035   93.4548   11.3417 N.pl3   1  UNL1       -0.1888
      9 C          66.4277   94.8866   10.9896 C.3     1  UNL1        0.2343
     10 C          66.9594   95.4600    9.7097 C.3     1  UNL1        0.1929
     11 O          67.7670   94.6018    8.7818 O.3     1  UNL1       -0.3449
     12 C          68.0429   93.1700    9.1338 C.3     1  UNL1        0.1929
     13 C          67.5111   92.5965   10.4138 C.3     1  UNL1        0.2343
     14 C          63.2767   90.4606   13.8502 C.3     1  UNL1        0.1852
     15 C          63.2940   89.0430   16.7895 C.3     1  UNL1        0.1316
     16 N          63.4705   88.3457   15.4733 N.ar    1  UNL1       -0.3124
     17 C          63.4626   88.9973   14.1222 C.ar    1  UNL1        0.1329
     18 N          63.6731   87.9285   13.0910 N.ar    1  UNL1       -0.2303
     19 C          63.8111   86.6164   13.8047 C.ar    1  UNL1        0.0983
     20 C          64.0347   85.2202   13.3041 C.ar    1  UNL1        0.0206
     21 C          64.1330   84.0819   14.2759 C.ar    1  UNL1        0.0016
     22 C          64.0078   84.3397   15.7482 C.ar    1  UNL1        0.0016
     23 C          63.7843   85.7359   16.2488 C.ar    1  UNL1        0.0188
     24 C          63.6859   86.8742   15.2770 C.ar    1  UNL1        0.0787
@<TRIPOS>BOND
     1    15    16    1
     2    16    17   ar
     3    17    14    1
     4    14     1    1
     5     1     2    1
     6     2     3    2
     7     3     8    1
     8     8     9    1
     9     9    10    1
    10    10    11    1
    11    11    12    1
    12    12    13    1
    13     3     4    1
    14     4     5    1
    15     5     6    2
    16     5     7    1
    17    17    18   ar
    18    18    19   ar
    19    19    20   ar
    20    20    21   ar
    21    21    22   ar
    22    22    23   ar
    23    23    24   ar
    24    24    16   ar
    25     7     1    2
    26    24    19   ar
    27    13     8    1
