@<TRIPOS>MOLECULE
*****
 48 53 0 0 0
SMALL
GASTEIGER

@<TRIPOS>ATOM
      1 N          59.0711   88.0242    8.5300 N.am    1  UNL1       -0.2681
      2 C          59.4843   89.0193    7.4865 C.2     1  UNL1        0.3082
      3 O          60.9004   89.5115    7.4384 O.2     1  UNL1       -0.2522
      4 N          58.4813   89.5223    6.4910 N.am    1  UNL1       -0.2681
      5 H          58.1417   87.7012    8.5616 H       1  UNL1        0.1564
      6 H          57.5518   89.1993    6.5225 H       1  UNL1        0.1564
      7 C          62.0801   86.5152   11.5165 C.ar    1  UNL1        0.0537
      8 C          62.0905   85.9910   10.1111 C.ar    1  UNL1        0.0058
      9 C          61.0875   86.4940    9.1157 C.ar    1  UNL1        0.0149
     10 C          60.0742   87.5212    9.5256 C.ar    1  UNL1        0.0516
     11 C          60.0638   88.0454   10.9309 C.ar    1  UNL1        0.0149
     12 C          61.0668   87.5424   11.9264 C.ar    1  UNL1        0.0058
     13 C          64.3346   83.8952   13.5594 C.3     1  UNL1        0.1518
     14 C          64.2937   82.4146   13.3225 C.3     1  UNL1        0.0310
     15 C          63.2976   82.1468   12.2334 C.3     1  UNL1        0.0237
     16 C          62.7229   83.4618   11.7973 C.3     1  UNL1        0.0942
     17 N          63.3638   84.5425   12.6168 N.am    1  UNL1       -0.2695
     18 C          63.0832   86.0122   12.5120 C.2     1  UNL1        0.2493
     19 O          63.8055   86.9790   13.4028 O.2     1  UNL1       -0.2699
     20 N          64.5920   85.1253   15.8334 N.am    1  UNL1       -0.3275
     21 C          65.1953   84.6041   14.5628 C.2     1  UNL1        0.2375
     22 O          66.6593   84.7918   14.2956 O.2     1  UNL1       -0.2736
     23 H          65.1569   85.5905   16.4919 H       1  UNL1        0.1450
     24 H          63.6311   85.0021   16.0088 H       1  UNL1        0.1450
     25 C          58.8944   90.5174    5.4474 C.ar    1  UNL1        0.0516
     26 C          57.8625   91.3801    4.7834 C.ar    1  UNL1        0.0148
     27 C          58.2756   92.3752    3.7399 C.ar    1  UNL1        0.0043
     28 C          59.7208   92.5076    3.3603 C.ar    1  UNL1        0.0361
     29 C          60.7527   91.6450    4.0243 C.ar    1  UNL1        0.0043
     30 C          60.3395   90.6498    5.0679 C.ar    1  UNL1        0.0148
     31 C          60.1339   93.5027    2.3167 C.ar    1  UNL1        0.1680
     32 N          61.5133   94.0914    2.3461 N.ar    1  UNL1       -0.1944
     33 C          61.9264   95.0865    1.3026 C.ar    1  UNL1        0.2240
     34 N          60.9602   95.4930    0.2296 N.ar    1  UNL1       -0.1807
     35 C          59.5808   94.9043    0.2002 C.ar    1  UNL1        0.2240
     36 N          59.1677   93.9092    1.2438 N.ar    1  UNL1       -0.1944
     37 N          63.3057   95.6752    1.3320 N.pl3   1  UNL1       -0.2729
     38 C          63.9250   96.0699    2.6398 C.3     1  UNL1        0.1257
     39 C          65.3044   96.6586    2.6692 C.3     1  UNL1        0.1637
     40 O          66.0644   96.8525    1.3907 O.3     1  UNL1       -0.3501
     41 C          65.4452   96.4578    0.0827 C.3     1  UNL1        0.1637
     42 C          64.0658   95.8691    0.0533 C.3     1  UNL1        0.1257
     43 N          58.6146   95.3108   -0.8727 N.pl3   1  UNL1       -0.2729
     44 C          58.9483   96.4494   -1.7905 C.3     1  UNL1        0.1257
     45 C          57.9821   96.8558   -2.8634 C.3     1  UNL1        0.1637
     46 O          56.6822   96.1237   -3.0186 O.3     1  UNL1       -0.3501
     47 C          56.3484   94.9851   -2.1009 C.3     1  UNL1        0.1637
     48 C          57.3147   94.5786   -1.0279 C.3     1  UNL1        0.1257
@<TRIPOS>BOND
     1    20    21   am
     2    21    22    2
     3    13    21    1
     4    13    14    1
     5    14    15    1
     6    15    16    1
     7    16    17    1
     8    17    18   am
     9    18    19    2
    10    18     7    1
    11     7     8   ar
    12     8     9   ar
    13     9    10   ar
    14    10     1    1
    15     1     2   am
    16     2     3    2
    17     2     4   am
    18     4    25    1
    19    25    26   ar
    20    26    27   ar
    21    27    28   ar
    22    28    31    1
    23    31    32   ar
    24    32    33   ar
    25    33    37    1
    26    37    38    1
    27    38    39    1
    28    39    40    1
    29    40    41    1
    30    41    42    1
    31    33    34   ar
    32    34    35   ar
    33    35    43    1
    34    43    44    1
    35    44    45    1
    36    45    46    1
    37    46    47    1
    38    47    48    1
    39    35    36   ar
    40    28    29   ar
    41    29    30   ar
    42    10    11   ar
    43    11    12   ar
    44    17    13    1
    45    12     7   ar
    46    30    25   ar
    47    36    31   ar
    48    42    37    1
    49    48    43    1
    50    20    23    1
    51    20    24    1
    52     1     5    1
    53     4     6    1
@<TRIPOS>MOLECULE
*****
 48 53 0 0 0
SMALL
GASTEIGER

@<TRIPOS>ATOM
      1 N          59.0617   91.2892    4.0194 N.am    1  UNL1       -0.2681
      2 C          59.8072   90.7963    5.2241 C.2     1  UNL1        0.3082
      3 O          61.2751   91.0722    5.3624 O.2     1  UNL1       -0.2522
      4 N          59.0847   90.0277    6.2906 N.am    1  UNL1       -0.2681
      5 H          58.0982   91.1081    3.9286 H       1  UNL1        0.1564
      6 H          58.1213   89.8466    6.1998 H       1  UNL1        0.1564
      7 C          61.2290   93.5951    0.8201 C.ar    1  UNL1        0.0537
      8 C          62.0027   92.9292    1.9192 C.ar    1  UNL1        0.0058
      9 C          61.2803   92.1606    2.9856 C.ar    1  UNL1        0.0149
     10 C          59.7841   92.0578    2.9529 C.ar    1  UNL1        0.0516
     11 C          59.0105   92.7237    1.8538 C.ar    1  UNL1        0.0149
     12 C          59.7329   93.4924    0.7875 C.ar    1  UNL1        0.0058
     13 C          63.9084   96.0882   -0.8310 C.3     1  UNL1        0.1518
     14 C          64.9427   96.8282   -0.0357 C.3     1  UNL1        0.0310
     15 C          64.7690   96.4591    1.4079 C.3     1  UNL1        0.0237
     16 C          63.6274   95.4910    1.5046 C.3     1  UNL1        0.0942
     17 N          63.0954   95.2618    0.1209 N.am    1  UNL1       -0.2695
     18 C          61.9515   94.3638   -0.2463 C.2     1  UNL1        0.2493
     19 O          61.5299   94.2344   -1.6801 O.2     1  UNL1       -0.2699
     20 N          62.5085   96.8379   -2.8874 N.am    1  UNL1       -0.3275
     21 C          63.7201   96.1617   -2.3173 C.2     1  UNL1        0.2375
     22 O          64.7433   95.5590   -3.2336 O.2     1  UNL1       -0.2736
     23 H          62.3850   96.8861   -3.8629 H       1  UNL1        0.1450
     24 H          61.8368   97.2335   -2.2860 H       1  UNL1        0.1450
     25 C          59.8302   89.5349    7.4953 C.ar    1  UNL1        0.0516
     26 C          60.4341   90.5153    8.4565 C.ar    1  UNL1        0.0148
     27 C          61.1795   90.0225    9.6612 C.ar    1  UNL1        0.0043
     28 C          61.3212   88.5492    9.9047 C.ar    1  UNL1        0.0361
     29 C          60.7173   87.5687    8.9435 C.ar    1  UNL1        0.0043
     30 C          59.9718   88.0616    7.7387 C.ar    1  UNL1        0.0148
     31 C          62.0666   88.0563   11.1094 C.ar    1  UNL1        0.1680
     32 N          62.3254   86.5890   11.2829 N.ar    1  UNL1       -0.1944
     33 C          63.0708   86.0962   12.4876 C.ar    1  UNL1        0.2240
     34 N          63.5576   87.0707   13.5189 N.ar    1  UNL1       -0.1807
     35 C          63.2989   88.5380   13.3454 C.ar    1  UNL1        0.2240
     36 N          62.5534   89.0308   12.1406 N.ar    1  UNL1       -0.1944
     37 N          63.3295   84.6289   12.6611 N.pl3   1  UNL1       -0.2729
     38 C          63.5719   83.7630   11.4606 C.3     1  UNL1        0.1257
     39 C          63.8307   82.2957   11.6341 C.3     1  UNL1        0.1637
     40 O          63.8470   81.6943   13.0082 O.3     1  UNL1       -0.3501
     41 C          63.6046   82.5603   14.2088 C.3     1  UNL1        0.1637
     42 C          63.3458   84.0276   14.0353 C.3     1  UNL1        0.1257
     43 N          63.7857   89.5125   14.3766 N.pl3   1  UNL1       -0.2729
     44 C          63.1606   89.5364   15.7400 C.3     1  UNL1        0.1257
     45 C          63.6474   90.5109   16.7712 C.3     1  UNL1        0.1637
     46 O          64.7592   91.4615   16.4390 O.3     1  UNL1       -0.3501
     47 C          65.3842   91.4376   15.0757 C.3     1  UNL1        0.1637
     48 C          64.8975   90.4631   14.0444 C.3     1  UNL1        0.1257
@<TRIPOS>BOND
     1    20    21   am
     2    21    22    2
     3    13    21    1
     4    13    14    1
     5    14    15    1
     6    15    16    1
     7    16    17    1
     8    17    18   am
     9    18    19    2
    10    18     7    1
    11     7     8   ar
    12     8     9   ar
    13     9    10   ar
    14    10     1    1
    15     1     2   am
    16     2     3    2
    17     2     4   am
    18     4    25    1
    19    25    26   ar
    20    26    27   ar
    21    27    28   ar
    22    28    31    1
    23    31    32   ar
    24    32    33   ar
    25    33    37    1
    26    37    38    1
    27    38    39    1
    28    39    40    1
    29    40    41    1
    30    41    42    1
    31    33    34   ar
    32    34    35   ar
    33    35    43    1
    34    43    44    1
    35    44    45    1
    36    45    46    1
    37    46    47    1
    38    47    48    1
    39    35    36   ar
    40    28    29   ar
    41    29    30   ar
    42    10    11   ar
    43    11    12   ar
    44    17    13    1
    45    12     7   ar
    46    30    25   ar
    47    36    31   ar
    48    42    37    1
    49    48    43    1
    50    20    23    1
    51    20    24    1
    52     1     5    1
    53     4     6    1
@<TRIPOS>MOLECULE
*****
 48 53 0 0 0
SMALL
GASTEIGER

@<TRIPOS>ATOM
      1 N          59.0520   89.5292    7.9890 N.am    1  UNL1       -0.2681
      2 C          59.5675   90.1019    6.7020 C.2     1  UNL1        0.3082
      3 O          60.9113   89.6861    6.1811 O.2     1  UNL1       -0.2522
      4 N          58.7392   91.0904    5.9359 N.am    1  UNL1       -0.2681
      5 H          58.1700   89.8021    8.3309 H       1  UNL1        0.1564
      6 H          57.8572   91.3633    6.2778 H       1  UNL1        0.1564
      7 C          61.5368   86.5638   10.2871 C.ar    1  UNL1        0.0537
      8 C          60.5506   86.0828    9.2644 C.ar    1  UNL1        0.0058
      9 C          59.7223   87.0713    8.4984 C.ar    1  UNL1        0.0149
     10 C          59.8803   88.5407    8.7551 C.ar    1  UNL1        0.0516
     11 C          60.8666   89.0217    9.7777 C.ar    1  UNL1        0.0149
     12 C          61.6949   88.0332   10.5438 C.ar    1  UNL1        0.0058
     13 C          63.9642   85.1384   13.1501 C.3     1  UNL1        0.1518
     14 C          64.5005   85.9815   14.2688 C.3     1  UNL1        0.0310
     15 C          63.9693   87.3737   14.0959 C.3     1  UNL1        0.0237
     16 C          63.1047   87.3909   12.8703 C.3     1  UNL1        0.0942
     17 N          63.1016   86.0094   12.2857 N.am    1  UNL1       -0.2695
     18 C          62.3652   85.5753   11.0532 C.2     1  UNL1        0.2493
     19 O          62.4570   84.1526   10.5867 O.2     1  UNL1       -0.2699
     20 N          65.0074   83.2340   11.7234 N.am    1  UNL1       -0.3275
     21 C          64.2419   83.6803   12.9337 C.2     1  UNL1        0.2375
     22 O          63.7541   82.6684   13.9278 O.2     1  UNL1       -0.2736
     23 H          65.1896   82.2770   11.5814 H       1  UNL1        0.1450
     24 H          65.3275   83.8981   11.0709 H       1  UNL1        0.1450
     25 C          59.2546   91.6630    4.6489 C.ar    1  UNL1        0.0516
     26 C          58.2925   92.1345    3.5992 C.ar    1  UNL1        0.0148
     27 C          58.8079   92.7071    2.3122 C.ar    1  UNL1        0.0043
     28 C          60.2856   92.8084    2.0750 C.ar    1  UNL1        0.0361
     29 C          61.2478   92.3369    3.1247 C.ar    1  UNL1        0.0043
     30 C          60.7323   91.7642    4.4117 C.ar    1  UNL1        0.0148
     31 C          60.8011   93.3810    0.7880 C.ar    1  UNL1        0.1680
     32 N          60.0040   93.2281   -0.4735 N.ar    1  UNL1       -0.1944
     33 C          60.5195   93.8007   -1.7604 C.ar    1  UNL1        0.2240
     34 N          61.8321   94.5263   -1.7860 N.ar    1  UNL1       -0.1807
     35 C          62.6292   94.6793   -0.5245 C.ar    1  UNL1        0.2240
     36 N          62.1137   94.1066    0.7625 N.ar    1  UNL1       -0.1944
     37 N          59.7224   93.6478   -3.0219 N.pl3   1  UNL1       -0.2729
     38 C          60.0340   94.5029   -4.2142 C.3     1  UNL1        0.1257
     39 C          59.2369   94.3500   -5.4757 C.3     1  UNL1        0.1637
     40 O          58.1282   93.3420   -5.5448 O.3     1  UNL1       -0.3501
     41 C          57.8166   92.4869   -4.3524 C.3     1  UNL1        0.1637
     42 C          58.6137   92.6398   -3.0909 C.3     1  UNL1        0.1257
     43 N          63.9418   95.4048   -0.5500 N.pl3   1  UNL1       -0.2729
     44 C          64.5754   95.7631   -1.8617 C.3     1  UNL1        0.1257
     45 C          65.8879   96.4886   -1.8872 C.3     1  UNL1        0.1637
     46 O          66.5670   96.8560   -0.6011 O.3     1  UNL1       -0.3501
     47 C          65.9334   96.4978    0.7105 C.3     1  UNL1        0.1637
     48 C          64.6208   95.7722    0.7360 C.3     1  UNL1        0.1257
@<TRIPOS>BOND
     1    20    21   am
     2    21    22    2
     3    13    21    1
     4    13    14    1
     5    14    15    1
     6    15    16    1
     7    16    17    1
     8    17    18   am
     9    18    19    2
    10    18     7    1
    11     7     8   ar
    12     8     9   ar
    13     9    10   ar
    14    10     1    1
    15     1     2   am
    16     2     3    2
    17     2     4   am
    18     4    25    1
    19    25    26   ar
    20    26    27   ar
    21    27    28   ar
    22    28    31    1
    23    31    32   ar
    24    32    33   ar
    25    33    37    1
    26    37    38    1
    27    38    39    1
    28    39    40    1
    29    40    41    1
    30    41    42    1
    31    33    34   ar
    32    34    35   ar
    33    35    43    1
    34    43    44    1
    35    44    45    1
    36    45    46    1
    37    46    47    1
    38    47    48    1
    39    35    36   ar
    40    28    29   ar
    41    29    30   ar
    42    10    11   ar
    43    11    12   ar
    44    17    13    1
    45    12     7   ar
    46    30    25   ar
    47    36    31   ar
    48    42    37    1
    49    48    43    1
    50    20    23    1
    51    20    24    1
    52     1     5    1
    53     4     6    1
@<TRIPOS>MOLECULE
*****
 48 53 0 0 0
SMALL
GASTEIGER

@<TRIPOS>ATOM
      1 N          59.4962   89.7056    7.6888 N.am    1  UNL1       -0.2681
      2 C          59.8299   90.2279    6.3229 C.2     1  UNL1        0.3082
      3 O          60.9080   89.5722    5.5119 O.2     1  UNL1       -0.2522
      4 N          59.0853   91.4059    5.7678 N.am    1  UNL1       -0.2681
      5 H          58.7886   90.1359    8.2211 H       1  UNL1        0.1564
      6 H          58.3776   91.8362    6.3000 H       1  UNL1        0.1564
      7 C          61.7299   86.1718    9.3540 C.ar    1  UNL1        0.0537
      8 C          62.0009   87.5482    9.8849 C.ar    1  UNL1        0.0058
      9 C          61.2563   88.7261    9.3298 C.ar    1  UNL1        0.0149
     10 C          60.2408   88.5276    8.2439 C.ar    1  UNL1        0.0516
     11 C          59.9698   87.1511    7.7130 C.ar    1  UNL1        0.0149
     12 C          60.7143   85.9732    8.2680 C.ar    1  UNL1        0.0058
     13 C          63.2136   83.6329   12.0877 C.3     1  UNL1        0.1518
     14 C          62.9920   83.7907   13.5628 C.3     1  UNL1        0.0310
     15 C          62.1547   85.0167   13.7772 C.3     1  UNL1        0.0237
     16 C          61.8590   85.6166   12.4346 C.3     1  UNL1        0.0942
     17 N          62.5134   84.7614   11.3904 N.am    1  UNL1       -0.2695
     18 C          62.4744   84.9938    9.9090 C.2     1  UNL1        0.2493
     19 O          63.1800   84.0482    8.9827 O.2     1  UNL1       -0.2699
     20 N          63.3300   81.6298   10.4370 N.am    1  UNL1       -0.3275
     21 C          63.9978   82.5387   11.4260 C.2     1  UNL1        0.2375
     22 O          65.4499   82.3533   11.7533 O.2     1  UNL1       -0.2736
     23 H          63.8447   80.9117   10.0028 H       1  UNL1        0.1450
     24 H          62.3770   81.7514   10.2222 H       1  UNL1        0.1450
     25 C          59.4189   91.9282    4.4019 C.ar    1  UNL1        0.0516
     26 C          60.8496   92.1642    4.0179 C.ar    1  UNL1        0.0148
     27 C          61.1833   92.6865    2.6520 C.ar    1  UNL1        0.0043
     28 C          60.0862   92.9728    1.6699 C.ar    1  UNL1        0.0361
     29 C          58.6555   92.7368    2.0538 C.ar    1  UNL1        0.0043
     30 C          58.3219   92.2145    3.4198 C.ar    1  UNL1        0.0148
     31 C          60.4198   93.4951    0.3039 C.ar    1  UNL1        0.1680
     32 N          61.7505   94.1398    0.0519 N.ar    1  UNL1       -0.1944
     33 C          62.0842   94.6620   -1.3141 C.ar    1  UNL1        0.2240
     34 N          61.0870   94.5397   -2.4281 N.ar    1  UNL1       -0.1807
     35 C          59.7563   93.8950   -2.1760 C.ar    1  UNL1        0.2240
     36 N          59.4227   93.3727   -0.8099 N.ar    1  UNL1       -0.1944
     37 N          63.4149   95.3067   -1.5662 N.pl3   1  UNL1       -0.2729
     38 C          64.3005   95.6747   -0.4128 C.3     1  UNL1        0.1257
     39 C          65.6312   96.3194   -0.6649 C.3     1  UNL1        0.1637
     40 O          66.0764   96.5961   -2.0703 O.3     1  UNL1       -0.3501
     41 C          65.1907   96.2281   -3.2237 C.3     1  UNL1        0.1637
     42 C          63.8600   95.5834   -2.9717 C.3     1  UNL1        0.1257
     43 N          58.7592   93.7726   -3.2899 N.pl3   1  UNL1       -0.2729
     44 C          59.1511   94.1384   -4.6909 C.3     1  UNL1        0.1257
     45 C          58.1540   94.0160   -5.8047 C.3     1  UNL1        0.1637
     46 O          56.7650   93.5278   -5.5177 O.3     1  UNL1       -0.3501
     47 C          56.3731   93.1620   -4.1168 C.3     1  UNL1        0.1637
     48 C          57.3702   93.2843   -3.0028 C.3     1  UNL1        0.1257
@<TRIPOS>BOND
     1    20    21   am
     2    21    22    2
     3    13    21    1
     4    13    14    1
     5    14    15    1
     6    15    16    1
     7    16    17    1
     8    17    18   am
     9    18    19    2
    10    18     7    1
    11     7     8   ar
    12     8     9   ar
    13     9    10   ar
    14    10     1    1
    15     1     2   am
    16     2     3    2
    17     2     4   am
    18     4    25    1
    19    25    26   ar
    20    26    27   ar
    21    27    28   ar
    22    28    31    1
    23    31    32   ar
    24    32    33   ar
    25    33    37    1
    26    37    38    1
    27    38    39    1
    28    39    40    1
    29    40    41    1
    30    41    42    1
    31    33    34   ar
    32    34    35   ar
    33    35    43    1
    34    43    44    1
    35    44    45    1
    36    45    46    1
    37    46    47    1
    38    47    48    1
    39    35    36   ar
    40    28    29   ar
    41    29    30   ar
    42    10    11   ar
    43    11    12   ar
    44    17    13    1
    45    12     7   ar
    46    30    25   ar
    47    36    31   ar
    48    42    37    1
    49    48    43    1
    50    20    23    1
    51    20    24    1
    52     1     5    1
    53     4     6    1
@<TRIPOS>MOLECULE
*****
 48 53 0 0 0
SMALL
GASTEIGER

@<TRIPOS>ATOM
      1 N          58.9215   89.5679    8.0160 N.am    1  UNL1       -0.2681
      2 C          59.4781   90.1446    6.7482 C.2     1  UNL1        0.3082
      3 O          60.8585   89.7700    6.2964 O.2     1  UNL1       -0.2522
      4 N          58.6542   91.0960    5.9319 N.am    1  UNL1       -0.2681
      5 H          58.0155   89.8137    8.3125 H       1  UNL1        0.1564
      6 H          57.7482   91.3419    6.2284 H       1  UNL1        0.1564
      7 C          61.3930   86.7136   10.4646 C.ar    1  UNL1        0.0537
      8 C          60.5193   86.1935    9.3618 C.ar    1  UNL1        0.0058
      9 C          59.6955   87.1449    8.5457 C.ar    1  UNL1        0.0149
     10 C          59.7454   88.6164    8.8323 C.ar    1  UNL1        0.0516
     11 C          60.6191   89.1366    9.9350 C.ar    1  UNL1        0.0149
     12 C          61.4429   88.1852   10.7511 C.ar    1  UNL1        0.0058
     13 C          63.9059   83.6906   11.2810 C.3     1  UNL1        0.1518
     14 C          64.5386   82.8378   10.2216 C.3     1  UNL1        0.0310
     15 C          64.0611   83.3269    8.8863 C.3     1  UNL1        0.0237
     16 C          63.1332   84.4819    9.1206 C.3     1  UNL1        0.0942
     17 N          63.0373   84.7067   10.6006 N.am    1  UNL1       -0.2695
     18 C          62.2168   85.7622   11.2808 C.2     1  UNL1        0.2493
     19 O          62.2202   85.8664   12.7771 O.2     1  UNL1       -0.2699
     20 N          63.3649   82.4931   13.5224 N.am    1  UNL1       -0.3275
     21 C          64.1066   83.5515   12.7610 C.2     1  UNL1        0.2375
     22 O          65.0489   84.4710   13.4797 O.2     1  UNL1       -0.2736
     23 H          63.4966   82.4019   14.4938 H       1  UNL1        0.1450
     24 H          62.7464   81.8896   13.0507 H       1  UNL1        0.1450
     25 C          59.2108   91.6728    4.6641 C.ar    1  UNL1        0.0516
     26 C          60.6948   91.8006    4.4864 C.ar    1  UNL1        0.0148
     27 C          61.2514   92.3774    3.2185 C.ar    1  UNL1        0.0043
     28 C          60.3240   92.8263    2.1283 C.ar    1  UNL1        0.0361
     29 C          58.8401   92.6984    2.3060 C.ar    1  UNL1        0.0043
     30 C          58.2835   92.1216    3.5739 C.ar    1  UNL1        0.0148
     31 C          60.8806   93.4030    0.8604 C.ar    1  UNL1        0.1680
     32 N          62.1971   94.1218    0.8780 N.ar    1  UNL1       -0.1944
     33 C          62.7537   94.6985   -0.3899 C.ar    1  UNL1        0.2240
     34 N          61.9938   94.5565   -1.6754 N.ar    1  UNL1       -0.1807
     35 C          60.6773   93.8378   -1.6930 C.ar    1  UNL1        0.2240
     36 N          60.1207   93.2611   -0.4250 N.ar    1  UNL1       -0.1944
     37 N          64.0701   95.4172   -0.3723 N.pl3   1  UNL1       -0.2729
     38 C          64.7473   95.7737   -1.6624 C.3     1  UNL1        0.1257
     39 C          66.0638   96.4925   -1.6449 C.3     1  UNL1        0.1637
     40 O          66.7031   96.8547   -0.3372 O.3     1  UNL1       -0.3501
     41 C          66.0260   96.4982    0.9530 C.3     1  UNL1        0.1637
     42 C          64.7095   95.7795    0.9354 C.3     1  UNL1        0.1257
     43 N          59.9174   93.6958   -2.9784 N.pl3   1  UNL1       -0.2729
     44 C          60.3647   94.4419   -4.2005 C.3     1  UNL1        0.1257
     45 C          59.6048   94.3000   -5.4859 C.3     1  UNL1        0.1637
     46 O          58.3976   93.4119   -5.5493 O.3     1  UNL1       -0.3501
     47 C          57.9503   92.6658   -4.3274 C.3     1  UNL1        0.1637
     48 C          58.7102   92.8078   -3.0419 C.3     1  UNL1        0.1257
@<TRIPOS>BOND
     1    20    21   am
     2    21    22    2
     3    13    21    1
     4    13    14    1
     5    14    15    1
     6    15    16    1
     7    16    17    1
     8    17    18   am
     9    18    19    2
    10    18     7    1
    11     7     8   ar
    12     8     9   ar
    13     9    10   ar
    14    10     1    1
    15     1     2   am
    16     2     3    2
    17     2     4   am
    18     4    25    1
    19    25    26   ar
    20    26    27   ar
    21    27    28   ar
    22    28    31    1
    23    31    32   ar
    24    32    33   ar
    25    33    37    1
    26    37    38    1
    27    38    39    1
    28    39    40    1
    29    40    41    1
    30    41    42    1
    31    33    34   ar
    32    34    35   ar
    33    35    43    1
    34    43    44    1
    35    44    45    1
    36    45    46    1
    37    46    47    1
    38    47    48    1
    39    35    36   ar
    40    28    29   ar
    41    29    30   ar
    42    10    11   ar
    43    11    12   ar
    44    17    13    1
    45    12     7   ar
    46    30    25   ar
    47    36    31   ar
    48    42    37    1
    49    48    43    1
    50    20    23    1
    51    20    24    1
    52     1     5    1
    53     4     6    1
