@<TRIPOS>MOLECULE
*****
 31 35 0 0 0
SMALL
GASTEIGER

@<TRIPOS>ATOM
      1 C          66.7150   92.6748   12.6744 C.3     1  UNL1        0.1063
      2 C          67.5834   92.7089   13.8969 C.3     1  UNL1        0.0632
      3 C          66.7337   92.3494   15.0795 C.3     1  UNL1        0.1888
      4 O          67.1964   92.2617   16.5037 O.3     1  UNL1       -0.3757
      5 C          65.3399   92.0931   14.5879 C.2     1  UNL1        0.2530
      6 O          64.1641   91.7040   15.4341 O.2     1  UNL1       -0.2722
      7 N          65.3283   92.2942   13.1015 N.am    1  UNL1       -0.2711
      8 H          66.4507   92.0107   17.0710 H       1  UNL1        0.2110
      9 C          66.6330   94.1824   10.5600 C.ar    1  UNL1        0.1384
     10 C          67.0737   94.4772    9.1569 C.ar    1  UNL1        0.0368
     11 C          68.0370   93.5590    8.4649 C.ar    1  UNL1        0.0054
     12 C          68.5597   92.3461    9.1760 C.ar    1  UNL1        0.0296
     13 C          68.1190   92.0514   10.5792 C.ar    1  UNL1        0.1406
     14 F          68.6417   90.8385   11.2904 F       1  UNL1       -0.2043
     15 C          67.1556   92.9695   11.2713 C.ar    1  UNL1        0.0572
     16 C          65.9701   96.5669   11.3505 C.3     1  UNL1        0.2525
     17 O          65.6696   95.1006   11.2521 O.3     1  UNL1       -0.4716
     18 C          64.1389   92.1415   12.2003 C.3     1  UNL1        0.1204
     19 C          63.5652   90.7802   11.9398 C.ar    1  UNL1       -0.0021
     20 C          63.9535   89.6232   12.8119 C.ar    1  UNL1        0.0005
     21 C          63.3797   88.2620   12.5513 C.ar    1  UNL1        0.0372
     22 C          62.4177   88.0578   11.4187 C.ar    1  UNL1        0.1453
     23 O          61.6944   86.8408   10.9232 O.2     1  UNL1       -0.4535
     24 C          60.8591   87.2456    9.7449 C.ar    1  UNL1        0.1453
     25 C          59.9367   86.4677    8.8538 C.ar    1  UNL1        0.0375
     26 C          59.2213   87.1571    7.7300 C.ar    1  UNL1        0.0031
     27 C          59.4284   88.6244    7.4973 C.ar    1  UNL1        0.0002
     28 C          60.3508   89.4023    8.3883 C.ar    1  UNL1        0.0031
     29 C          61.0661   88.7129    9.5121 C.ar    1  UNL1        0.0375
     30 C          62.0294   89.2148   10.5466 C.ar    1  UNL1        0.0372
     31 C          62.6031   90.5760   10.8072 C.ar    1  UNL1        0.0005
@<TRIPOS>BOND
     1    16    17    1
     2    17     9    1
     3     9    10   ar
     4    10    11   ar
     5    11    12   ar
     6    12    13   ar
     7    13    14    1
     8    13    15   ar
     9    15     1    1
    10     1     2    1
    11     2     3    1
    12     3     4    1
    13     3     5    1
    14     5     6    2
    15     5     7   am
    16     7    18    1
    17    18    19    1
    18    19    20   ar
    19    20    21   ar
    20    21    22   ar
    21    22    23   ar
    22    23    24   ar
    23    24    25   ar
    24    25    26   ar
    25    26    27   ar
    26    27    28   ar
    27    28    29   ar
    28    29    30   ar
    29    30    31   ar
    30    15     9   ar
    31     7     1    1
    32    31    19   ar
    33    30    22   ar
    34    29    24   ar
    35     4     8    1
@<TRIPOS>MOLECULE
*****
 31 35 0 0 0
SMALL
GASTEIGER

@<TRIPOS>ATOM
      1 C          61.2980   86.5413    9.5684 C.3     1  UNL1        0.1063
      2 C          60.3597   86.5260    8.3982 C.3     1  UNL1        0.0632
      3 C          59.6328   87.8376    8.3695 C.3     1  UNL1        0.1888
      4 O          58.5984   88.2507    7.3648 O.3     1  UNL1       -0.3757
      5 C          60.1217   88.6638    9.5221 C.2     1  UNL1        0.2530
      6 O          59.6622   90.0480    9.8723 O.2     1  UNL1       -0.2722
      7 N          61.1508   87.8627   10.2630 N.am    1  UNL1       -0.2711
      8 H          58.2858   89.1454    7.5717 H       1  UNL1        0.2110
      9 C          63.1193   84.7932    8.9545 C.ar    1  UNL1        0.1384
     10 C          64.0425   83.6823    9.3590 C.ar    1  UNL1        0.0368
     11 C          64.0677   83.2089   10.7821 C.ar    1  UNL1        0.0054
     12 C          63.1696   83.8462   11.8006 C.ar    1  UNL1        0.0296
     13 C          62.2464   84.9570   11.3960 C.ar    1  UNL1        0.1406
     14 F          61.3483   85.5943   12.4145 F       1  UNL1       -0.2043
     15 C          62.2212   85.4305    9.9730 C.ar    1  UNL1        0.0572
     16 C          62.3469   84.4830    6.4934 C.3     1  UNL1        0.2525
     17 O          63.0941   85.2667    7.5314 O.3     1  UNL1       -0.4716
     18 C          61.9011   88.3051   11.4842 C.3     1  UNL1        0.1204
     19 C          62.7679   89.5282   11.4298 C.ar    1  UNL1       -0.0021
     20 C          62.8505   90.3333   10.1669 C.ar    1  UNL1        0.0005
     21 C          63.7173   91.5563   10.1126 C.ar    1  UNL1        0.0372
     22 C          64.5014   91.9742   11.3211 C.ar    1  UNL1        0.1453
     23 O          65.4334   93.1240   11.5646 O.2     1  UNL1       -0.4535
     24 C          65.9268   93.0295   12.9780 C.ar    1  UNL1        0.1453
     25 C          66.8660   93.8875   13.7727 C.ar    1  UNL1        0.0375
     26 C          67.1782   93.5373   15.1974 C.ar    1  UNL1        0.0031
     27 C          66.5511   92.3290   15.8274 C.ar    1  UNL1        0.0002
     28 C          65.6119   91.4710   15.0328 C.ar    1  UNL1        0.0031
     29 C          65.2997   91.8212   13.6080 C.ar    1  UNL1        0.0375
     30 C          64.4188   91.1691   12.5840 C.ar    1  UNL1        0.0372
     31 C          63.5520   89.9460   12.6384 C.ar    1  UNL1        0.0005
@<TRIPOS>BOND
     1    16    17    1
     2    17     9    1
     3     9    10   ar
     4    10    11   ar
     5    11    12   ar
     6    12    13   ar
     7    13    14    1
     8    13    15   ar
     9    15     1    1
    10     1     2    1
    11     2     3    1
    12     3     4    1
    13     3     5    1
    14     5     6    2
    15     5     7   am
    16     7    18    1
    17    18    19    1
    18    19    20   ar
    19    20    21   ar
    20    21    22   ar
    21    22    23   ar
    22    23    24   ar
    23    24    25   ar
    24    25    26   ar
    25    26    27   ar
    26    27    28   ar
    27    28    29   ar
    28    29    30   ar
    29    30    31   ar
    30    15     9   ar
    31     7     1    1
    32    31    19   ar
    33    30    22   ar
    34    29    24   ar
    35     4     8    1
@<TRIPOS>MOLECULE
*****
 31 35 0 0 0
SMALL
GASTEIGER

@<TRIPOS>ATOM
      1 C          64.4981   90.8124   13.3440 C.3     1  UNL1        0.1063
      2 C          63.6378   91.3501   12.2392 C.3     1  UNL1        0.0632
      3 C          62.8300   90.2138   11.6857 C.3     1  UNL1        0.1888
      4 O          61.8358   90.3020   10.5660 O.3     1  UNL1       -0.3757
      5 C          63.1910   88.9738   12.4485 C.2     1  UNL1        0.2530
      6 O          62.6213   87.6043   12.2257 O.2     1  UNL1       -0.2722
      7 N          64.2220   89.3437   13.4734 N.am    1  UNL1       -0.2711
      8 H          61.4531   89.4256   10.4036 H       1  UNL1        0.2110
      9 C          66.6801   92.2095   13.5361 C.ar    1  UNL1        0.1384
     10 C          67.6468   93.0014   14.3659 C.ar    1  UNL1        0.0368
     11 C          67.3980   93.1880   15.8332 C.ar    1  UNL1        0.0054
     12 C          66.1827   92.5828   16.4709 C.ar    1  UNL1        0.0296
     13 C          65.2160   91.7909   15.6412 C.ar    1  UNL1        0.1406
     14 F          64.0007   91.1856   16.2788 F       1  UNL1       -0.2043
     15 C          65.4647   91.6042   14.1738 C.ar    1  UNL1        0.0572
     16 C          66.5455   93.1020   11.0999 C.3     1  UNL1        0.2525
     17 O          66.9288   92.0229   12.0687 O.3     1  UNL1       -0.4716
     18 C          64.8641   88.4091   14.4553 C.3     1  UNL1        0.1204
     19 C          64.1780   87.1292   14.8315 C.ar    1  UNL1       -0.0021
     20 C          63.5320   86.9922   16.1783 C.ar    1  UNL1        0.0005
     21 C          62.8460   85.7124   16.5544 C.ar    1  UNL1        0.0372
     22 C          62.8061   84.5695   15.5837 C.ar    1  UNL1        0.1453
     23 O          62.2078   83.1969   15.6733 O.2     1  UNL1       -0.4535
     24 C          62.4842   82.4855   14.3820 C.ar    1  UNL1        0.1453
     25 C          62.1349   81.1088   13.8998 C.ar    1  UNL1        0.0375
     26 C          62.5546   80.6650   12.5298 C.ar    1  UNL1        0.0031
     27 C          63.3236   81.5980   11.6420 C.ar    1  UNL1        0.0002
     28 C          63.6729   82.9747   12.1242 C.ar    1  UNL1        0.0031
     29 C          63.2532   83.4185   13.4942 C.ar    1  UNL1        0.0375
     30 C          63.4521   84.7065   14.2369 C.ar    1  UNL1        0.0372
     31 C          64.1381   85.9863   13.8608 C.ar    1  UNL1        0.0005
@<TRIPOS>BOND
     1    16    17    1
     2    17     9    1
     3     9    10   ar
     4    10    11   ar
     5    11    12   ar
     6    12    13   ar
     7    13    14    1
     8    13    15   ar
     9    15     1    1
    10     1     2    1
    11     2     3    1
    12     3     4    1
    13     3     5    1
    14     5     6    2
    15     5     7   am
    16     7    18    1
    17    18    19    1
    18    19    20   ar
    19    20    21   ar
    20    21    22   ar
    21    22    23   ar
    22    23    24   ar
    23    24    25   ar
    24    25    26   ar
    25    26    27   ar
    26    27    28   ar
    27    28    29   ar
    28    29    30   ar
    29    30    31   ar
    30    15     9   ar
    31     7     1    1
    32    31    19   ar
    33    30    22   ar
    34    29    24   ar
    35     4     8    1
@<TRIPOS>MOLECULE
*****
 31 35 0 0 0
SMALL
GASTEIGER

@<TRIPOS>ATOM
      1 C          61.5234   86.0845    9.9912 C.3     1  UNL1        0.1063
      2 C          60.5010   85.9957    8.8972 C.3     1  UNL1        0.0632
      3 C          59.7074   87.2685    8.8998 C.3     1  UNL1        0.1888
      4 O          58.5799   87.6065    7.9700 O.3     1  UNL1       -0.3757
      5 C          60.2392   88.1440    9.9955 C.2     1  UNL1        0.2530
      6 O          59.7370   89.5112   10.3538 O.2     1  UNL1       -0.2722
      7 N          61.3615   87.4123   10.6700 N.am    1  UNL1       -0.2711
      8 H          58.2382   88.4888    8.1835 H       1  UNL1        0.2110
      9 C          62.7127   84.6164   11.7746 C.ar    1  UNL1        0.1384
     10 C          63.7199   83.5625   12.1278 C.ar    1  UNL1        0.0368
     11 C          64.5451   82.9229   11.0509 C.ar    1  UNL1        0.0054
     12 C          64.3631   83.3371    9.6207 C.ar    1  UNL1        0.0296
     13 C          63.3558   84.3910    9.2675 C.ar    1  UNL1        0.1406
     14 F          63.1738   84.8051    7.8374 F       1  UNL1       -0.2043
     15 C          62.5306   85.0307   10.3444 C.ar    1  UNL1        0.0572
     16 C          62.0905   84.8636   14.2849 C.3     1  UNL1        0.2525
     17 O          61.8874   85.2561   12.8515 O.3     1  UNL1       -0.4716
     18 C          62.1786   87.9193   11.8212 C.3     1  UNL1        0.1204
     19 C          62.9179   89.2190   11.7014 C.ar    1  UNL1       -0.0021
     20 C          62.8196   90.0242   10.4396 C.ar    1  UNL1        0.0005
     21 C          63.5588   91.3239   10.3199 C.ar    1  UNL1        0.0372
     22 C          64.3963   91.8184   11.4619 C.ar    1  UNL1        0.1453
     23 O          65.2317   93.0524   11.6333 O.2     1  UNL1       -0.4535
     24 C          65.8462   93.0099   13.0009 C.ar    1  UNL1        0.1453
     25 C          66.7618   93.9559   13.7197 C.ar    1  UNL1        0.0375
     26 C          67.2218   93.6417   15.1124 C.ar    1  UNL1        0.0031
     27 C          66.7662   92.3814   15.7863 C.ar    1  UNL1        0.0002
     28 C          65.8506   91.4354   15.0675 C.ar    1  UNL1        0.0031
     29 C          65.3906   91.7496   13.6748 C.ar    1  UNL1        0.0375
     30 C          64.4945   91.0132   12.7236 C.ar    1  UNL1        0.0372
     31 C          63.7553   89.7136   12.8434 C.ar    1  UNL1        0.0005
@<TRIPOS>BOND
     1    16    17    1
     2    17     9    1
     3     9    10   ar
     4    10    11   ar
     5    11    12   ar
     6    12    13   ar
     7    13    14    1
     8    13    15   ar
     9    15     1    1
    10     1     2    1
    11     2     3    1
    12     3     4    1
    13     3     5    1
    14     5     6    2
    15     5     7   am
    16     7    18    1
    17    18    19    1
    18    19    20   ar
    19    20    21   ar
    20    21    22   ar
    21    22    23   ar
    22    23    24   ar
    23    24    25   ar
    24    25    26   ar
    25    26    27   ar
    26    27    28   ar
    27    28    29   ar
    28    29    30   ar
    29    30    31   ar
    30    15     9   ar
    31     7     1    1
    32    31    19   ar
    33    30    22   ar
    34    29    24   ar
    35     4     8    1
@<TRIPOS>MOLECULE
*****
 31 35 0 0 0
SMALL
GASTEIGER

@<TRIPOS>ATOM
      1 C          64.5532   90.4545   13.9168 C.3     1  UNL1        0.1063
      2 C          65.8286   91.2440   13.9277 C.3     1  UNL1        0.0632
      3 C          65.9092   92.0126   12.6422 C.3     1  UNL1        0.1888
      4 O          67.0202   92.9338   12.2338 O.3     1  UNL1       -0.3757
      5 C          64.6835   91.6981   11.8366 C.2     1  UNL1        0.2530
      6 O          64.3538   92.2497   10.4813 O.2     1  UNL1       -0.2722
      7 N          63.8455   90.7352   12.6243 N.am    1  UNL1       -0.2711
      8 H          66.8282   93.3035   11.3578 H       1  UNL1        0.2110
      9 C          63.4579   90.1206   16.2490 C.ar    1  UNL1        0.1384
     10 C          62.9750   89.2103   17.3390 C.ar    1  UNL1        0.0368
     11 C          63.1045   87.7237   17.1869 C.ar    1  UNL1        0.0054
     12 C          63.7169   87.1474   15.9448 C.ar    1  UNL1        0.0296
     13 C          64.1998   88.0576   14.8548 C.ar    1  UNL1        0.1406
     14 F          64.8121   87.4813   13.6127 F       1  UNL1       -0.2043
     15 C          64.0703   89.5443   15.0068 C.ar    1  UNL1        0.0572
     16 C          64.4696   92.4065   16.9569 C.3     1  UNL1        0.2525
     17 O          63.3285   91.6073   16.4010 O.3     1  UNL1       -0.4716
     18 C          62.5307   90.1549   12.1951 C.3     1  UNL1        0.1204
     19 C          62.4857   88.8130   11.5261 C.ar    1  UNL1       -0.0021
     20 C          62.2164   88.7177   10.0536 C.ar    1  UNL1        0.0005
     21 C          62.1715   87.3758    9.3847 C.ar    1  UNL1        0.0372
     22 C          62.3958   86.1293   10.1883 C.ar    1  UNL1        0.1453
     23 O          62.4112   84.6786    9.8073 O.2     1  UNL1       -0.4535
     24 C          62.6899   83.8773   11.0444 C.ar    1  UNL1        0.1453
     25 C          62.8211   82.4011   11.2756 C.ar    1  UNL1        0.0375
     26 C          63.1093   81.8804   12.6525 C.ar    1  UNL1        0.0031
     27 C          63.2663   82.8359   13.7981 C.ar    1  UNL1        0.0002
     28 C          63.1351   84.3121   13.5668 C.ar    1  UNL1        0.0031
     29 C          62.8469   84.8328   12.1900 C.ar    1  UNL1        0.0375
     30 C          62.6652   86.2246   11.6609 C.ar    1  UNL1        0.0372
     31 C          62.7101   87.5664   12.3298 C.ar    1  UNL1        0.0005
@<TRIPOS>BOND
     1    16    17    1
     2    17     9    1
     3     9    10   ar
     4    10    11   ar
     5    11    12   ar
     6    12    13   ar
     7    13    14    1
     8    13    15   ar
     9    15     1    1
    10     1     2    1
    11     2     3    1
    12     3     4    1
    13     3     5    1
    14     5     6    2
    15     5     7   am
    16     7    18    1
    17    18    19    1
    18    19    20   ar
    19    20    21   ar
    20    21    22   ar
    21    22    23   ar
    22    23    24   ar
    23    24    25   ar
    24    25    26   ar
    25    26    27   ar
    26    27    28   ar
    27    28    29   ar
    28    29    30   ar
    29    30    31   ar
    30    15     9   ar
    31     7     1    1
    32    31    19   ar
    33    30    22   ar
    34    29    24   ar
    35     4     8    1
@<TRIPOS>MOLECULE
*****
 31 35 0 0 0
SMALL
GASTEIGER

@<TRIPOS>ATOM
      1 C          63.3768   84.6324   12.7238 C.3     1  UNL1        0.1063
      2 C          64.2135   83.5082   12.1888 C.3     1  UNL1        0.0632
      3 C          64.1027   83.5189   10.6930 C.3     1  UNL1        0.1888
      4 O          64.7784   82.5661    9.7519 O.3     1  UNL1       -0.3757
      5 C          63.1975   84.6497   10.3033 C.2     1  UNL1        0.2530
      6 O          62.8091   85.0263    8.9044 O.2     1  UNL1       -0.2722
      7 N          62.7489   85.3379   11.5584 N.am    1  UNL1       -0.2711
      8 H          64.5412   82.7908    8.8386 H       1  UNL1        0.2110
      9 C          62.2746   84.1820   15.0330 C.ar    1  UNL1        0.1384
     10 C          62.0971   84.5381   16.4792 C.ar    1  UNL1        0.0368
     11 C          62.8441   85.7008   17.0624 C.ar    1  UNL1        0.0054
     12 C          63.7687   86.5072   16.1995 C.ar    1  UNL1        0.0296
     13 C          63.9463   86.1511   14.7532 C.ar    1  UNL1        0.1406
     14 F          64.8709   86.9576   13.8903 F       1  UNL1       -0.2043
     15 C          63.1993   84.9885   14.1699 C.ar    1  UNL1        0.0572
     16 C          62.1641   81.6617   14.4121 C.3     1  UNL1        0.2525
     17 O          61.5276   83.0194   14.4496 O.3     1  UNL1       -0.4716
     18 C          61.8332   86.5235   11.6348 C.3     1  UNL1        0.1204
     19 C          62.3702   87.9029   11.3918 C.ar    1  UNL1       -0.0021
     20 C          62.0361   88.6245   10.1200 C.ar    1  UNL1        0.0005
     21 C          62.5731   90.0038    9.8770 C.ar    1  UNL1        0.0372
     22 C          63.4442   90.6615   10.9059 C.ar    1  UNL1        0.1453
     23 O          64.1142   92.0031   10.9445 O.2     1  UNL1       -0.4535
     24 C          64.8623   92.1105   12.2401 C.ar    1  UNL1        0.1453
     25 C          65.7057   93.2047   12.8243 C.ar    1  UNL1        0.0375
     26 C          66.3416   93.0238   14.1708 C.ar    1  UNL1        0.0031
     27 C          66.1340   91.7487   14.9330 C.ar    1  UNL1        0.0002
     28 C          65.2906   90.6545   14.3488 C.ar    1  UNL1        0.0031
     29 C          64.6547   90.8354   13.0024 C.ar    1  UNL1        0.0375
     30 C          63.7783   89.9399   12.1778 C.ar    1  UNL1        0.0372
     31 C          63.2413   88.5606   12.4207 C.ar    1  UNL1        0.0005
@<TRIPOS>BOND
     1    16    17    1
     2    17     9    1
     3     9    10   ar
     4    10    11   ar
     5    11    12   ar
     6    12    13   ar
     7    13    14    1
     8    13    15   ar
     9    15     1    1
    10     1     2    1
    11     2     3    1
    12     3     4    1
    13     3     5    1
    14     5     6    2
    15     5     7   am
    16     7    18    1
    17    18    19    1
    18    19    20   ar
    19    20    21   ar
    20    21    22   ar
    21    22    23   ar
    22    23    24   ar
    23    24    25   ar
    24    25    26   ar
    25    26    27   ar
    26    27    28   ar
    27    28    29   ar
    28    29    30   ar
    29    30    31   ar
    30    15     9   ar
    31     7     1    1
    32    31    19   ar
    33    30    22   ar
    34    29    24   ar
    35     4     8    1
@<TRIPOS>MOLECULE
*****
 31 35 0 0 0
SMALL
GASTEIGER

@<TRIPOS>ATOM
      1 C          62.5318   86.0595   11.7545 C.3     1  UNL1        0.1063
      2 C          62.7483   84.7135   12.3803 C.3     1  UNL1        0.0632
      3 C          63.5612   84.9067   13.6260 C.3     1  UNL1        0.1888
      4 O          64.0094   83.8246   14.5630 O.3     1  UNL1       -0.3757
      5 C          63.8471   86.3721   13.7703 C.2     1  UNL1        0.2530
      6 O          64.6314   87.0127   14.8768 O.2     1  UNL1       -0.2722
      7 N          63.2109   87.0846   12.6137 N.am    1  UNL1       -0.2711
      8 H          64.5201   84.2163   15.2887 H       1  UNL1        0.2110
      9 C          60.5602   87.2187   10.5220 C.ar    1  UNL1        0.1384
     10 C          59.7984   87.4916    9.2591 C.ar    1  UNL1        0.0368
     11 C          60.2464   86.8783    7.9656 C.ar    1  UNL1        0.0054
     12 C          61.4562   85.9920    7.9351 C.ar    1  UNL1        0.0296
     13 C          62.2180   85.7191    9.1981 C.ar    1  UNL1        0.1406
     14 F          63.4278   84.8328    9.1676 F       1  UNL1       -0.2043
     15 C          61.7700   86.3324   10.4916 C.ar    1  UNL1        0.0572
     16 C          59.7123   89.2770   11.8616 C.3     1  UNL1        0.2525
     17 O          60.1122   87.8320   11.8155 O.3     1  UNL1       -0.4716
     18 C          63.2474   88.5626   12.3605 C.3     1  UNL1        0.1204
     19 C          63.7086   89.4972   13.4394 C.ar    1  UNL1       -0.0021
     20 C          62.7957   89.8336   14.5811 C.ar    1  UNL1        0.0005
     21 C          63.2569   90.7681   15.6599 C.ar    1  UNL1        0.0372
     22 C          64.6311   91.3662   15.5971 C.ar    1  UNL1        0.1453
     23 O          65.3569   92.3117   16.5077 O.2     1  UNL1       -0.4535
     24 C          66.7183   92.5597   15.9289 C.ar    1  UNL1        0.1453
     25 C          67.8676   93.4045   16.3930 C.ar    1  UNL1        0.0375
     26 C          69.1326   93.4570   15.5886 C.ar    1  UNL1        0.0031
     27 C          69.2482   92.6647   14.3202 C.ar    1  UNL1        0.0002
     28 C          68.0990   91.8199   13.8562 C.ar    1  UNL1        0.0031
     29 C          66.8340   91.7673   14.6605 C.ar    1  UNL1        0.0375
     30 C          65.5441   91.0298   14.4554 C.ar    1  UNL1        0.0372
     31 C          65.0828   90.0953   13.3766 C.ar    1  UNL1        0.0005
@<TRIPOS>BOND
     1    16    17    1
     2    17     9    1
     3     9    10   ar
     4    10    11   ar
     5    11    12   ar
     6    12    13   ar
     7    13    14    1
     8    13    15   ar
     9    15     1    1
    10     1     2    1
    11     2     3    1
    12     3     4    1
    13     3     5    1
    14     5     6    2
    15     5     7   am
    16     7    18    1
    17    18    19    1
    18    19    20   ar
    19    20    21   ar
    20    21    22   ar
    21    22    23   ar
    22    23    24   ar
    23    24    25   ar
    24    25    26   ar
    25    26    27   ar
    26    27    28   ar
    27    28    29   ar
    28    29    30   ar
    29    30    31   ar
    30    15     9   ar
    31     7     1    1
    32    31    19   ar
    33    30    22   ar
    34    29    24   ar
    35     4     8    1
@<TRIPOS>MOLECULE
*****
 31 35 0 0 0
SMALL
GASTEIGER

@<TRIPOS>ATOM
      1 C          62.9548   85.1053   11.7288 C.3     1  UNL1        0.1063
      2 C          63.3089   84.1390   10.6375 C.3     1  UNL1        0.0632
      3 C          62.9338   84.7629    9.3260 C.3     1  UNL1        0.1888
      4 O          63.1132   84.1437    7.9717 O.3     1  UNL1       -0.3757
      5 C          62.3478   86.1149    9.6067 C.2     1  UNL1        0.2530
      6 O          61.8384   87.0850    8.5824 O.2     1  UNL1       -0.2722
      7 N          62.3608   86.3265   11.0917 N.am    1  UNL1       -0.2711
      8 H          62.7897   84.7548    7.2913 H       1  UNL1        0.2110
      9 C          62.6501   83.6366   13.8501 C.ar    1  UNL1        0.1384
     10 C          62.8541   83.4197   15.3203 C.ar    1  UNL1        0.0368
     11 C          63.5668   84.4548   16.1392 C.ar    1  UNL1        0.0054
     12 C          64.0755   85.7067   15.4880 C.ar    1  UNL1        0.0296
     13 C          63.8715   85.9235   14.0179 C.ar    1  UNL1        0.1406
     14 F          64.3801   87.1754   13.3667 F       1  UNL1       -0.2043
     15 C          63.1588   84.8885   13.1989 C.ar    1  UNL1        0.0572
     16 C          61.9256   81.1696   13.4775 C.3     1  UNL1        0.2525
     17 O          61.9374   82.6015   13.0311 O.3     1  UNL1       -0.4716
     18 C          61.8666   87.5453   11.8130 C.3     1  UNL1        0.1204
     19 C          62.5572   88.8629   11.6196 C.ar    1  UNL1       -0.0021
     20 C          62.3520   89.6383   10.3521 C.ar    1  UNL1        0.0005
     21 C          63.0425   90.9558   10.1588 C.ar    1  UNL1        0.0372
     22 C          63.9383   91.4978   11.2330 C.ar    1  UNL1        0.1453
     23 O          64.7459   92.7584   11.3251 O.2     1  UNL1       -0.4535
     24 C          65.4503   92.7621   12.6494 C.ar    1  UNL1        0.1453
     25 C          66.3826   93.7487   13.2877 C.ar    1  UNL1        0.0375
     26 C          66.9425   93.4769   14.6524 C.ar    1  UNL1        0.0031
     27 C          66.5702   92.2185   15.3789 C.ar    1  UNL1        0.0002
     28 C          65.6379   91.2319   14.7406 C.ar    1  UNL1        0.0031
     29 C          65.0780   91.5037   13.3759 C.ar    1  UNL1        0.0375
     30 C          64.1435   90.7223   12.5005 C.ar    1  UNL1        0.0372
     31 C          63.4529   89.4049   12.6938 C.ar    1  UNL1        0.0005
@<TRIPOS>BOND
     1    16    17    1
     2    17     9    1
     3     9    10   ar
     4    10    11   ar
     5    11    12   ar
     6    12    13   ar
     7    13    14    1
     8    13    15   ar
     9    15     1    1
    10     1     2    1
    11     2     3    1
    12     3     4    1
    13     3     5    1
    14     5     6    2
    15     5     7   am
    16     7    18    1
    17    18    19    1
    18    19    20   ar
    19    20    21   ar
    20    21    22   ar
    21    22    23   ar
    22    23    24   ar
    23    24    25   ar
    24    25    26   ar
    25    26    27   ar
    26    27    28   ar
    27    28    29   ar
    28    29    30   ar
    29    30    31   ar
    30    15     9   ar
    31     7     1    1
    32    31    19   ar
    33    30    22   ar
    34    29    24   ar
    35     4     8    1
@<TRIPOS>MOLECULE
*****
 31 35 0 0 0
SMALL
GASTEIGER

@<TRIPOS>ATOM
      1 C          62.0997   86.3315   10.9192 C.3     1  UNL1        0.1063
      2 C          61.0658   86.7031    9.8979 C.3     1  UNL1        0.0632
      3 C          60.6549   88.1235   10.1497 C.3     1  UNL1        0.1888
      4 O          59.6419   88.9011    9.3627 O.3     1  UNL1       -0.3757
      5 C          61.4348   88.6299   11.3267 C.2     1  UNL1        0.2530
      6 O          61.3387   90.0027   11.9234 O.2     1  UNL1       -0.2722
      7 N          62.3277   87.5225   11.8023 N.am    1  UNL1       -0.2711
      8 H          59.5626   89.7947    9.7315 H       1  UNL1        0.2110
      9 C          62.7442   84.2497   12.3337 C.ar    1  UNL1        0.1384
     10 C          63.4296   82.9206   12.4513 C.ar    1  UNL1        0.0368
     11 C          64.1560   82.3445   11.2722 C.ar    1  UNL1        0.0054
     12 C          64.1970   83.0973    9.9754 C.ar    1  UNL1        0.0296
     13 C          63.5115   84.4263    9.8578 C.ar    1  UNL1        0.1406
     14 F          63.5525   85.1791    8.5610 F       1  UNL1       -0.2043
     15 C          62.7851   85.0026   11.0369 C.ar    1  UNL1        0.0572
     16 C          62.3119   84.3216   14.8945 C.3     1  UNL1        0.2525
     17 O          62.0178   84.8259   13.5127 O.3     1  UNL1       -0.4716
     18 C          63.2812   87.5934   12.9580 C.3     1  UNL1        0.1204
     19 C          63.8485   88.9156   13.3824 C.ar    1  UNL1       -0.0021
     20 C          63.9702   89.2464   14.8404 C.ar    1  UNL1        0.0005
     21 C          64.5374   90.5686   15.2646 C.ar    1  UNL1        0.0372
     22 C          64.9829   91.5600   14.2309 C.ar    1  UNL1        0.1453
     23 O          65.5765   92.9327   14.3468 O.2     1  UNL1       -0.4535
     24 C          65.8217   93.4503   12.9604 C.ar    1  UNL1        0.1453
     25 C          66.3904   94.7442   12.4581 C.ar    1  UNL1        0.0375
     26 C          66.5169   94.9853   10.9831 C.ar    1  UNL1        0.0031
     27 C          66.0747   93.9326   10.0103 C.ar    1  UNL1        0.0002
     28 C          65.5060   92.6387   10.5126 C.ar    1  UNL1        0.0031
     29 C          65.3795   92.3975   11.9877 C.ar    1  UNL1        0.0375
     30 C          64.8611   91.2293   12.7729 C.ar    1  UNL1        0.0372
     31 C          64.2939   89.9071   12.3486 C.ar    1  UNL1        0.0005
@<TRIPOS>BOND
     1    16    17    1
     2    17     9    1
     3     9    10   ar
     4    10    11   ar
     5    11    12   ar
     6    12    13   ar
     7    13    14    1
     8    13    15   ar
     9    15     1    1
    10     1     2    1
    11     2     3    1
    12     3     4    1
    13     3     5    1
    14     5     6    2
    15     5     7   am
    16     7    18    1
    17    18    19    1
    18    19    20   ar
    19    20    21   ar
    20    21    22   ar
    21    22    23   ar
    22    23    24   ar
    23    24    25   ar
    24    25    26   ar
    25    26    27   ar
    26    27    28   ar
    27    28    29   ar
    28    29    30   ar
    29    30    31   ar
    30    15     9   ar
    31     7     1    1
    32    31    19   ar
    33    30    22   ar
    34    29    24   ar
    35     4     8    1
