@<TRIPOS>MOLECULE
*****
 33 37 0 0 0
SMALL
GASTEIGER

@<TRIPOS>ATOM
      1 C          63.1096   86.5626   12.5305 C.2     1  UNL1        0.2506
      2 O          63.7748   87.4476   13.5425 O.2     1  UNL1       -0.2699
      3 N          62.1486   87.1479   11.5386 N.am    1  UNL1       -0.2739
      4 C          61.4834   86.2629   10.5266 C.3     1  UNL1        0.1257
      5 C          60.5225   86.8483    9.5346 C.3     1  UNL1        0.1637
      6 O          60.2268   88.3187    9.5547 O.3     1  UNL1       -0.3502
      7 C          60.8920   89.2037   10.5668 C.3     1  UNL1        0.1605
      8 C          61.8529   88.6184   11.5587 C.3     1  UNL1        0.0920
      9 C          62.8289   88.5334   12.6946 C.3     1  UNL1        0.0228
     10 C          64.2858   82.2447    9.8899 C.3     1  UNL1        0.0310
     11 C          63.9935   82.9332   11.1901 C.ar    1  UNL1       -0.0216
     12 C          63.9968   82.1513   12.4702 C.ar    1  UNL1       -0.0026
     13 C          63.7045   82.8398   13.7704 C.ar    1  UNL1        0.0207
     14 C          63.4087   84.3102   13.7905 C.ar    1  UNL1        0.1072
     15 C          63.4053   85.0921   12.5104 C.ar    1  UNL1        0.0726
     16 C          63.6977   84.4036   11.2102 C.ar    1  UNL1        0.0018
     17 N          63.1164   84.9987   15.0907 N.ar    1  UNL1       -0.1477
     18 N          61.7811   85.0688   15.7705 N.ar    1  UNL1       -0.1447
     19 C          61.9474   85.8514   17.0393 C.ar    1  UNL1        0.1446
     20 C          63.3855   86.2650   17.1437 C.ar    1  UNL1        0.1446
     21 N          64.1079   85.7380   15.9394 N.ar    1  UNL1       -0.1447
     22 C          61.8962   90.0593   11.9733 C.3     1  UNL1        0.0471
     23 C          63.1464   90.8619   11.7666 C.ar    1  UNL1       -0.0189
     24 C          63.5117   91.3407   10.3928 C.ar    1  UNL1       -0.0041
     25 C          64.7619   92.1433   10.1860 C.ar    1  UNL1        0.0013
     26 C          65.6469   92.4672   11.3530 C.ar    1  UNL1        0.0209
     27 C          65.2815   91.9883   12.7269 C.ar    1  UNL1        0.1026
     28 C          64.0313   91.1857   12.9337 C.ar    1  UNL1        0.0167
     29 N          66.1664   92.3122   13.8940 N.ar    1  UNL1       -0.1478
     30 N          65.7197   92.5016   15.3133 N.ar    1  UNL1       -0.1447
     31 C          66.9307   92.8099   16.1432 C.ar    1  UNL1        0.1446
     32 C          68.1258   92.8112   15.2366 C.ar    1  UNL1        0.1446
     33 N          67.6535   92.5035   13.8465 N.ar    1  UNL1       -0.1447
@<TRIPOS>BOND
     1    10    11    1
     2    11    12   ar
     3    12    13   ar
     4    13    14   ar
     5    14    17    1
     6    17    18   ar
     7    18    19   ar
     8    19    20   ar
     9    20    21   ar
    10    14    15   ar
    11    15     1    1
    12     1     2    2
    13     1     3   am
    14     3     4    1
    15     4     5    1
    16     5     6    1
    17     6     7    1
    18     7     8    1
    19     8     9    1
    20     8    22    1
    21    22    23    1
    22    23    24   ar
    23    24    25   ar
    24    25    26   ar
    25    26    27   ar
    26    27    29    1
    27    29    30   ar
    28    30    31   ar
    29    31    32   ar
    30    32    33   ar
    31    27    28   ar
    32    15    16   ar
    33    16    11   ar
    34    21    17   ar
    35     8     3    1
    36    28    23   ar
    37    33    29   ar
@<TRIPOS>MOLECULE
*****
 33 37 0 0 0
SMALL
GASTEIGER

@<TRIPOS>ATOM
      1 C          62.6528   86.9042   11.3541 C.2     1  UNL1        0.2506
      2 O          63.1222   88.2696   11.7607 O.2     1  UNL1       -0.2699
      3 N          62.9245   85.7235   12.2385 N.am    1  UNL1       -0.2739
      4 C          62.4551   84.3581   11.8318 C.3     1  UNL1        0.1257
      5 C          62.7268   83.1774   12.7163 C.3     1  UNL1        0.1637
      6 O          63.4679   83.3621   14.0073 O.3     1  UNL1       -0.3502
      7 C          63.9372   84.7275   14.4139 C.3     1  UNL1        0.1605
      8 C          63.6656   85.9082   13.5295 C.3     1  UNL1        0.0920
      9 C          63.6493   87.3238   13.0337 C.3     1  UNL1        0.0228
     10 C          62.1580   84.5551    6.7457 C.3     1  UNL1        0.0310
     11 C          61.6644   85.5450    7.7589 C.ar    1  UNL1       -0.0216
     12 C          60.4297   86.3501    7.4811 C.ar    1  UNL1       -0.0026
     13 C          59.9360   87.3399    8.4942 C.ar    1  UNL1        0.0207
     14 C          60.6770   87.5246    9.7852 C.ar    1  UNL1        0.1072
     15 C          61.9117   86.7195   10.0630 C.ar    1  UNL1        0.0726
     16 C          62.4054   85.7297    9.0499 C.ar    1  UNL1        0.0018
     17 N          60.1833   88.5145   10.7984 N.ar    1  UNL1       -0.1477
     18 N          59.6107   88.1863   12.1454 N.ar    1  UNL1       -0.1447
     19 C          59.2491   89.4752   12.8220 C.ar    1  UNL1        0.1446
     20 C          59.5981   90.6001   11.8931 C.ar    1  UNL1        0.1446
     21 N          60.1755   90.0063   10.6425 N.ar    1  UNL1       -0.1447
     22 C          64.4010   86.5846   14.6483 C.3     1  UNL1        0.0471
     23 C          64.0995   88.0143   14.9874 C.ar    1  UNL1       -0.0189
     24 C          63.1942   88.3372   16.1390 C.ar    1  UNL1       -0.0041
     25 C          62.8927   89.7669   16.4782 C.ar    1  UNL1        0.0013
     26 C          63.4966   90.8738   15.6659 C.ar    1  UNL1        0.0209
     27 C          64.4019   90.5510   14.5142 C.ar    1  UNL1        0.1026
     28 C          64.7034   89.1213   14.1750 C.ar    1  UNL1        0.0167
     29 N          65.0058   91.6579   13.7018 N.ar    1  UNL1       -0.1478
     30 N          64.8579   91.8466   12.2211 N.ar    1  UNL1       -0.1447
     31 C          65.6243   93.0759   11.8316 C.ar    1  UNL1        0.1446
     32 C          66.2460   93.6468   13.0716 C.ar    1  UNL1        0.1446
     33 N          65.8638   92.7705   14.2275 N.ar    1  UNL1       -0.1447
@<TRIPOS>BOND
     1    10    11    1
     2    11    12   ar
     3    12    13   ar
     4    13    14   ar
     5    14    17    1
     6    17    18   ar
     7    18    19   ar
     8    19    20   ar
     9    20    21   ar
    10    14    15   ar
    11    15     1    1
    12     1     2    2
    13     1     3   am
    14     3     4    1
    15     4     5    1
    16     5     6    1
    17     6     7    1
    18     7     8    1
    19     8     9    1
    20     8    22    1
    21    22    23    1
    22    23    24   ar
    23    24    25   ar
    24    25    26   ar
    25    26    27   ar
    26    27    29    1
    27    29    30   ar
    28    30    31   ar
    29    31    32   ar
    30    32    33   ar
    31    27    28   ar
    32    15    16   ar
    33    16    11   ar
    34    21    17   ar
    35     8     3    1
    36    28    23   ar
    37    33    29   ar
@<TRIPOS>MOLECULE
*****
 33 37 0 0 0
SMALL
GASTEIGER

@<TRIPOS>ATOM
      1 C          63.2675   86.6603   12.7526 C.2     1  UNL1        0.2506
      2 O          63.7928   87.4403   13.9211 O.2     1  UNL1       -0.2699
      3 N          62.5855   87.3716   11.6217 N.am    1  UNL1       -0.2739
      4 C          62.0602   86.5916   10.4531 C.3     1  UNL1        0.1257
      5 C          61.3782   87.3029    9.3221 C.3     1  UNL1        0.1637
      6 O          61.2216   88.7942    9.3598 O.3     1  UNL1       -0.3502
      7 C          61.7470   89.5742   10.5284 C.3     1  UNL1        0.1605
      8 C          62.4289   88.8630   11.6593 C.3     1  UNL1        0.0920
      9 C          63.1426   88.6431   12.9602 C.3     1  UNL1        0.0228
     10 C          64.1234   82.2917   10.0725 C.3     1  UNL1        0.0310
     11 C          63.8521   82.9847   11.3749 C.ar    1  UNL1       -0.0216
     12 C          63.7373   82.1864   12.6396 C.ar    1  UNL1       -0.0026
     13 C          63.4660   82.8793   13.9419 C.ar    1  UNL1        0.0207
     14 C          63.3094   84.3706   13.9796 C.ar    1  UNL1        0.1072
     15 C          63.4241   85.1689   12.7149 C.ar    1  UNL1        0.0726
     16 C          63.6954   84.4760   11.4126 C.ar    1  UNL1        0.0018
     17 N          63.0380   85.0636   15.2820 N.ar    1  UNL1       -0.1477
     18 N          64.0668   85.6731   16.1876 N.ar    1  UNL1       -0.1447
     19 C          63.3549   86.2549   17.3727 C.ar    1  UNL1        0.1446
     20 C          61.8860   86.0051   17.1996 C.ar    1  UNL1        0.1446
     21 N          61.6902   85.2688   15.9075 N.ar    1  UNL1       -0.1447
     22 C          62.5202   90.2779   12.1488 C.3     1  UNL1        0.0471
     23 C          63.8574   90.8733   12.4764 C.ar    1  UNL1       -0.0189
     24 C          64.4603   90.6622   13.8336 C.ar    1  UNL1       -0.0041
     25 C          65.7975   91.2575   14.1611 C.ar    1  UNL1        0.0013
     26 C          66.5320   92.0641   13.1316 C.ar    1  UNL1        0.0209
     27 C          65.9291   92.2752   11.7743 C.ar    1  UNL1        0.1026
     28 C          64.5918   91.6798   11.4467 C.ar    1  UNL1        0.0167
     29 N          66.6635   93.0818   10.7446 N.ar    1  UNL1       -0.1478
     30 N          66.5059   94.5533   10.5006 N.ar    1  UNL1       -0.1447
     31 C          67.4295   94.9394    9.3834 C.ar    1  UNL1        0.1446
     32 C          68.1578   93.7063    8.9370 C.ar    1  UNL1        0.1446
     33 N          67.6844   92.5582    9.7783 N.ar    1  UNL1       -0.1447
@<TRIPOS>BOND
     1    10    11    1
     2    11    12   ar
     3    12    13   ar
     4    13    14   ar
     5    14    17    1
     6    17    18   ar
     7    18    19   ar
     8    19    20   ar
     9    20    21   ar
    10    14    15   ar
    11    15     1    1
    12     1     2    2
    13     1     3   am
    14     3     4    1
    15     4     5    1
    16     5     6    1
    17     6     7    1
    18     7     8    1
    19     8     9    1
    20     8    22    1
    21    22    23    1
    22    23    24   ar
    23    24    25   ar
    24    25    26   ar
    25    26    27   ar
    26    27    29    1
    27    29    30   ar
    28    30    31   ar
    29    31    32   ar
    30    32    33   ar
    31    27    28   ar
    32    15    16   ar
    33    16    11   ar
    34    21    17   ar
    35     8     3    1
    36    28    23   ar
    37    33    29   ar
@<TRIPOS>MOLECULE
*****
 33 37 0 0 0
SMALL
GASTEIGER

@<TRIPOS>ATOM
      1 C          63.2071   86.0024   12.7334 C.2     1  UNL1        0.2506
      2 O          64.1340   86.7476   13.6475 O.2     1  UNL1       -0.2699
      3 N          62.4295   86.7439   11.6868 N.am    1  UNL1       -0.2739
      4 C          61.5026   85.9988   10.7726 C.3     1  UNL1        0.1257
      5 C          60.7250   86.7404    9.7259 C.3     1  UNL1        0.1637
      6 O          60.8743   88.2270    9.5935 O.3     1  UNL1       -0.3502
      7 C          61.8012   88.9722   10.5076 C.3     1  UNL1        0.1605
      8 C          62.5788   88.2307   11.5542 C.3     1  UNL1        0.0920
      9 C          63.5221   87.9745   12.6921 C.3     1  UNL1        0.0228
     10 C          63.1045   81.2795   10.5693 C.3     1  UNL1        0.0310
     11 C          63.0065   82.1543   11.7838 C.ar    1  UNL1       -0.0216
     12 C          62.7593   81.5425   13.1309 C.ar    1  UNL1       -0.0026
     13 C          62.6614   82.4173   14.3454 C.ar    1  UNL1        0.0207
     14 C          62.8106   83.9039   14.2129 C.ar    1  UNL1        0.1072
     15 C          63.0578   84.5157   12.8659 C.ar    1  UNL1        0.0726
     16 C          63.1558   83.6409   11.6514 C.ar    1  UNL1        0.0018
     17 N          62.7127   84.7787   15.4275 N.ar    1  UNL1       -0.1477
     18 N          61.4442   85.2384   16.0830 N.ar    1  UNL1       -0.1447
     19 C          61.8136   86.0912   17.2604 C.ar    1  UNL1        0.1446
     20 C          63.3103   86.1586   17.3326 C.ar    1  UNL1        0.1446
     21 N          63.8660   85.3474   16.1998 N.ar    1  UNL1       -0.1447
     22 C          63.0557   89.6283   11.8170 C.3     1  UNL1        0.0471
     23 C          63.4384   90.0412   13.2073 C.ar    1  UNL1       -0.0189
     24 C          62.5312   89.7264   14.3597 C.ar    1  UNL1       -0.0041
     25 C          62.9138   90.1393   15.7500 C.ar    1  UNL1        0.0013
     26 C          64.2036   90.8670   15.9882 C.ar    1  UNL1        0.0209
     27 C          65.1109   91.1818   14.8358 C.ar    1  UNL1        0.1026
     28 C          64.7283   90.7689   13.4454 C.ar    1  UNL1        0.0167
     29 N          66.4008   91.9095   15.0738 N.ar    1  UNL1       -0.1478
     30 N          67.6260   91.8372   14.2115 N.ar    1  UNL1       -0.1447
     31 C          68.6744   92.7203   14.8207 C.ar    1  UNL1        0.1446
     32 C          68.0971   93.3383   16.0596 C.ar    1  UNL1        0.1446
     33 N          66.6919   92.8372   16.2161 N.ar    1  UNL1       -0.1447
@<TRIPOS>BOND
     1    10    11    1
     2    11    12   ar
     3    12    13   ar
     4    13    14   ar
     5    14    17    1
     6    17    18   ar
     7    18    19   ar
     8    19    20   ar
     9    20    21   ar
    10    14    15   ar
    11    15     1    1
    12     1     2    2
    13     1     3   am
    14     3     4    1
    15     4     5    1
    16     5     6    1
    17     6     7    1
    18     7     8    1
    19     8     9    1
    20     8    22    1
    21    22    23    1
    22    23    24   ar
    23    24    25   ar
    24    25    26   ar
    25    26    27   ar
    26    27    29    1
    27    29    30   ar
    28    30    31   ar
    29    31    32   ar
    30    32    33   ar
    31    27    28   ar
    32    15    16   ar
    33    16    11   ar
    34    21    17   ar
    35     8     3    1
    36    28    23   ar
    37    33    29   ar
@<TRIPOS>MOLECULE
*****
 33 37 0 0 0
SMALL
GASTEIGER

@<TRIPOS>ATOM
      1 C          63.2378   88.8431   12.4791 C.2     1  UNL1        0.2506
      2 O          63.5933   87.4079   12.7313 O.2     1  UNL1       -0.2699
      3 N          62.0750   89.1835   11.5948 N.am    1  UNL1       -0.2739
      4 C          61.7194   90.6188   11.3426 C.3     1  UNL1        0.1257
      5 C          60.5565   90.9592   10.4583 C.3     1  UNL1        0.1637
      6 O          59.7493   89.8643    9.8262 O.3     1  UNL1       -0.3502
      7 C          60.1048   88.4290   10.0784 C.3     1  UNL1        0.1605
      8 C          61.2676   88.0886   10.9627 C.3     1  UNL1        0.0920
      9 C          62.2711   87.2691   11.7187 C.3     1  UNL1        0.0228
     10 C          65.8273   93.3302   12.0783 C.3     1  UNL1        0.0310
     11 C          65.3399   92.1815   12.9108 C.ar    1  UNL1       -0.0216
     12 C          65.6597   92.1278   14.3753 C.ar    1  UNL1       -0.0026
     13 C          65.1722   90.9791   15.2077 C.ar    1  UNL1        0.0207
     14 C          64.3649   89.8843   14.5757 C.ar    1  UNL1        0.1072
     15 C          64.0451   89.9380   13.1112 C.ar    1  UNL1        0.0726
     16 C          64.5326   91.0867   12.2787 C.ar    1  UNL1        0.0018
     17 N          63.8774   88.7356   15.4081 N.ar    1  UNL1       -0.1477
     18 N          62.9141   88.8238   16.5545 N.ar    1  UNL1       -0.1447
     19 C          62.7089   87.4398   17.0953 C.ar    1  UNL1        0.1446
     20 C          63.5455   86.4962   16.2831 C.ar    1  UNL1        0.1446
     21 N          64.2677   87.2970   15.2404 N.ar    1  UNL1       -0.1447
     22 C          60.8089   86.7092   10.5932 C.3     1  UNL1        0.0471
     23 C          61.8144   85.6171   10.3780 C.ar    1  UNL1       -0.0189
     24 C          62.6461   85.5985    9.1298 C.ar    1  UNL1       -0.0041
     25 C          63.6515   84.5064    8.9146 C.ar    1  UNL1        0.0013
     26 C          63.8254   83.4328    9.9476 C.ar    1  UNL1        0.0209
     27 C          62.9937   83.4514   11.1958 C.ar    1  UNL1        0.1026
     28 C          61.9883   84.5434   11.4111 C.ar    1  UNL1        0.0167
     29 N          63.1676   82.3777   12.2289 N.ar    1  UNL1       -0.1478
     30 N          62.0760   81.5302   12.8120 N.ar    1  UNL1       -0.1447
     31 C          62.6973   80.5918   13.8037 C.ar    1  UNL1        0.1446
     32 C          64.1730   80.8595   13.8335 C.ar    1  UNL1        0.1446
     33 N          64.4637   81.9633   12.8602 N.ar    1  UNL1       -0.1447
@<TRIPOS>BOND
     1    10    11    1
     2    11    12   ar
     3    12    13   ar
     4    13    14   ar
     5    14    17    1
     6    17    18   ar
     7    18    19   ar
     8    19    20   ar
     9    20    21   ar
    10    14    15   ar
    11    15     1    1
    12     1     2    2
    13     1     3   am
    14     3     4    1
    15     4     5    1
    16     5     6    1
    17     6     7    1
    18     7     8    1
    19     8     9    1
    20     8    22    1
    21    22    23    1
    22    23    24   ar
    23    24    25   ar
    24    25    26   ar
    25    26    27   ar
    26    27    29    1
    27    29    30   ar
    28    30    31   ar
    29    31    32   ar
    30    32    33   ar
    31    27    28   ar
    32    15    16   ar
    33    16    11   ar
    34    21    17   ar
    35     8     3    1
    36    28    23   ar
    37    33    29   ar
@<TRIPOS>MOLECULE
*****
 33 37 0 0 0
SMALL
GASTEIGER

@<TRIPOS>ATOM
      1 C          63.1330   87.0818   12.0168 C.2     1  UNL1        0.2506
      2 O          63.8830   87.1198   13.3152 O.2     1  UNL1       -0.2699
      3 N          62.4745   88.3241   11.4943 N.am    1  UNL1       -0.2739
      4 C          61.7245   88.2861   10.1958 C.3     1  UNL1        0.1257
      5 C          61.0660   89.5285    9.6734 C.3     1  UNL1        0.1637
      6 O          61.1576   90.8089   10.4494 O.3     1  UNL1       -0.3502
      7 C          61.9077   90.8469   11.7479 C.3     1  UNL1        0.1605
      8 C          62.5661   89.6046   12.2703 C.3     1  UNL1        0.0920
      9 C          63.3511   88.6975   13.1709 C.3     1  UNL1        0.0228
     10 C          62.7580   84.5914    7.4717 C.3     1  UNL1        0.0310
     11 C          62.8539   84.5562    8.9682 C.ar    1  UNL1       -0.0216
     12 C          62.8583   83.2406    9.6887 C.ar    1  UNL1       -0.0026
     13 C          62.9542   83.2054   11.1852 C.ar    1  UNL1        0.0207
     14 C          63.0458   84.4857   11.9612 C.ar    1  UNL1        0.1072
     15 C          63.0414   85.8013   11.2407 C.ar    1  UNL1        0.0726
     16 C          62.9455   85.8366    9.7442 C.ar    1  UNL1        0.0018
     17 N          63.1417   84.4505   13.4578 N.ar    1  UNL1       -0.1477
     18 N          62.0081   84.6531   14.4189 N.ar    1  UNL1       -0.1447
     19 C          62.5539   84.5343   15.8111 C.ar    1  UNL1        0.1446
     20 C          64.0248   84.2583   15.7103 C.ar    1  UNL1        0.1446
     21 N          64.3881   84.2065   14.2559 N.ar    1  UNL1       -0.1447
     22 C          62.9303   90.5699   13.3591 C.3     1  UNL1        0.0471
     23 C          64.3190   91.1327   13.4287 C.ar    1  UNL1       -0.0189
     24 C          65.1199   90.9999   14.6900 C.ar    1  UNL1       -0.0041
     25 C          66.5085   91.5627   14.7595 C.ar    1  UNL1        0.0013
     26 C          67.0964   92.2584   13.5678 C.ar    1  UNL1        0.0209
     27 C          66.2954   92.3913   12.3064 C.ar    1  UNL1        0.1026
     28 C          64.9068   91.8285   12.2368 C.ar    1  UNL1        0.0167
     29 N          66.8833   93.0871   11.1146 N.ar    1  UNL1       -0.1478
     30 N          67.6057   92.4286    9.9768 N.ar    1  UNL1       -0.1447
     31 C          68.0207   93.4981    9.0103 C.ar    1  UNL1        0.1446
     32 C          67.5548   94.8175    9.5508 C.ar    1  UNL1        0.1446
     33 N          66.8518   94.5635   10.8513 N.ar    1  UNL1       -0.1447
@<TRIPOS>BOND
     1    10    11    1
     2    11    12   ar
     3    12    13   ar
     4    13    14   ar
     5    14    17    1
     6    17    18   ar
     7    18    19   ar
     8    19    20   ar
     9    20    21   ar
    10    14    15   ar
    11    15     1    1
    12     1     2    2
    13     1     3   am
    14     3     4    1
    15     4     5    1
    16     5     6    1
    17     6     7    1
    18     7     8    1
    19     8     9    1
    20     8    22    1
    21    22    23    1
    22    23    24   ar
    23    24    25   ar
    24    25    26   ar
    25    26    27   ar
    26    27    29    1
    27    29    30   ar
    28    30    31   ar
    29    31    32   ar
    30    32    33   ar
    31    27    28   ar
    32    15    16   ar
    33    16    11   ar
    34    21    17   ar
    35     8     3    1
    36    28    23   ar
    37    33    29   ar
@<TRIPOS>MOLECULE
*****
 33 37 0 0 0
SMALL
GASTEIGER

@<TRIPOS>ATOM
      1 C          62.2076   84.6863   12.1384 C.2     1  UNL1        0.2506
      2 O          61.4433   85.6299   13.0191 O.2     1  UNL1       -0.2699
      3 N          62.4950   85.0566   10.7136 N.am    1  UNL1       -0.2739
      4 C          63.2593   84.1130    9.8330 C.3     1  UNL1        0.1257
      5 C          63.5468   84.4834    8.4081 C.3     1  UNL1        0.1637
      6 O          63.0700   85.7973    7.8639 O.3     1  UNL1       -0.3502
      7 C          62.3057   86.7409    8.7445 C.3     1  UNL1        0.1605
      8 C          62.0182   86.3706   10.1693 C.3     1  UNL1        0.0920
      9 C          61.5030   86.4684   11.5747 C.3     1  UNL1        0.0228
     10 C          62.7338   79.5395   11.6544 C.3     1  UNL1        0.0310
     11 C          62.9475   80.7989   12.4407 C.ar    1  UNL1       -0.0216
     12 C          63.6379   80.7444   13.7712 C.ar    1  UNL1       -0.0026
     13 C          63.8516   82.0038   14.5574 C.ar    1  UNL1        0.0207
     14 C          63.3748   83.3178   14.0132 C.ar    1  UNL1        0.1072
     15 C          62.6844   83.3723   12.6827 C.ar    1  UNL1        0.0726
     16 C          62.4707   82.1129   11.8965 C.ar    1  UNL1        0.0018
     17 N          63.5885   84.5772   14.7995 N.ar    1  UNL1       -0.1477
     18 N          62.8061   85.0076   16.0047 N.ar    1  UNL1       -0.1447
     19 C          63.3562   86.3237   16.4687 C.ar    1  UNL1        0.1446
     20 C          64.4785   86.7067   15.5502 C.ar    1  UNL1        0.1446
     21 N          64.6221   85.6273   14.5186 N.ar    1  UNL1       -0.1447
     22 C          61.3625   87.7184   10.1133 C.3     1  UNL1        0.0471
     23 C          62.0957   88.9302   10.6071 C.ar    1  UNL1       -0.0189
     24 C          62.5630   89.9723    9.6347 C.ar    1  UNL1       -0.0041
     25 C          63.2962   91.1841   10.1286 C.ar    1  UNL1        0.0013
     26 C          63.5622   91.3539   11.5949 C.ar    1  UNL1        0.0209
     27 C          63.0949   90.3118   12.5675 C.ar    1  UNL1        0.1026
     28 C          62.3617   89.1000   12.0736 C.ar    1  UNL1        0.0167
     29 N          63.3609   90.4815   14.0340 N.ar    1  UNL1       -0.1478
     30 N          64.2988   91.4765   14.6505 N.ar    1  UNL1       -0.1447
     31 C          64.2532   91.2960   16.1389 C.ar    1  UNL1        0.1446
     32 C          63.2871   90.1893   16.4423 C.ar    1  UNL1        0.1446
     33 N          62.7356   89.6859   15.1413 N.ar    1  UNL1       -0.1447
@<TRIPOS>BOND
     1    10    11    1
     2    11    12   ar
     3    12    13   ar
     4    13    14   ar
     5    14    17    1
     6    17    18   ar
     7    18    19   ar
     8    19    20   ar
     9    20    21   ar
    10    14    15   ar
    11    15     1    1
    12     1     2    2
    13     1     3   am
    14     3     4    1
    15     4     5    1
    16     5     6    1
    17     6     7    1
    18     7     8    1
    19     8     9    1
    20     8    22    1
    21    22    23    1
    22    23    24   ar
    23    24    25   ar
    24    25    26   ar
    25    26    27   ar
    26    27    29    1
    27    29    30   ar
    28    30    31   ar
    29    31    32   ar
    30    32    33   ar
    31    27    28   ar
    32    15    16   ar
    33    16    11   ar
    34    21    17   ar
    35     8     3    1
    36    28    23   ar
    37    33    29   ar
@<TRIPOS>MOLECULE
*****
 33 37 0 0 0
SMALL
GASTEIGER

@<TRIPOS>ATOM
      1 C          62.4742   87.6143   11.2928 C.2     1  UNL1        0.2506
      2 O          62.6648   86.6019   12.3830 O.2     1  UNL1       -0.2699
      3 N          63.0099   89.0055   11.4592 N.am    1  UNL1       -0.2739
      4 C          62.8192   90.0180   10.3690 C.3     1  UNL1        0.1257
      5 C          63.3550   91.4091   10.5354 C.3     1  UNL1        0.1637
      6 O          64.0814   91.7878   11.7919 O.3     1  UNL1       -0.3502
      7 C          64.2721   90.7753   12.8821 C.3     1  UNL1        0.1605
      8 C          63.7364   89.3842   12.7158 C.3     1  UNL1        0.0920
      9 C          63.4140   87.9517   13.0228 C.3     1  UNL1        0.0228
     10 C          62.2261   84.8579    6.8951 C.3     1  UNL1        0.0310
     11 C          61.6237   85.8574    7.8374 C.ar    1  UNL1       -0.0216
     12 C          60.2949   86.4782    7.5232 C.ar    1  UNL1       -0.0026
     13 C          59.6925   87.4778    8.4656 C.ar    1  UNL1        0.0207
     14 C          60.4189   87.8565    9.7221 C.ar    1  UNL1        0.1072
     15 C          61.7477   87.2357   10.0363 C.ar    1  UNL1        0.0726
     16 C          62.3501   86.2361    9.0939 C.ar    1  UNL1        0.0018
     17 N          59.8165   88.8560   10.6644 N.ar    1  UNL1       -0.1477
     18 N          59.6021   90.3140   10.3844 N.ar    1  UNL1       -0.1447
     19 C          58.9758   90.9322   11.5991 C.ar    1  UNL1        0.1446
     20 C          58.8031   89.8562   12.6300 C.ar    1  UNL1        0.1446
     21 N          59.3226   88.5732   12.0523 N.ar    1  UNL1       -0.1447
     22 C          64.3508   89.2653   14.0789 C.3     1  UNL1        0.0471
     23 C          63.9367   88.1508   14.9935 C.ar    1  UNL1       -0.0189
     24 C          63.4505   88.4587   16.3787 C.ar    1  UNL1       -0.0041
     25 C          63.0364   87.3443   17.2933 C.ar    1  UNL1        0.0013
     26 C          63.1085   85.9218   16.8228 C.ar    1  UNL1        0.0209
     27 C          63.5948   85.6139   15.4375 C.ar    1  UNL1        0.1026
     28 C          64.0089   86.7283   14.5229 C.ar    1  UNL1        0.0167
     29 N          63.6669   84.1914   14.9669 N.ar    1  UNL1       -0.1478
     30 N          62.7974   83.0626   15.4355 N.ar    1  UNL1       -0.1447
     31 C          63.2144   81.8216   14.7033 C.ar    1  UNL1        0.1446
     32 C          64.3416   82.1835   13.7822 C.ar    1  UNL1        0.1446
     33 N          64.6214   83.6481   13.9451 N.ar    1  UNL1       -0.1447
@<TRIPOS>BOND
     1    10    11    1
     2    11    12   ar
     3    12    13   ar
     4    13    14   ar
     5    14    17    1
     6    17    18   ar
     7    18    19   ar
     8    19    20   ar
     9    20    21   ar
    10    14    15   ar
    11    15     1    1
    12     1     2    2
    13     1     3   am
    14     3     4    1
    15     4     5    1
    16     5     6    1
    17     6     7    1
    18     7     8    1
    19     8     9    1
    20     8    22    1
    21    22    23    1
    22    23    24   ar
    23    24    25   ar
    24    25    26   ar
    25    26    27   ar
    26    27    29    1
    27    29    30   ar
    28    30    31   ar
    29    31    32   ar
    30    32    33   ar
    31    27    28   ar
    32    15    16   ar
    33    16    11   ar
    34    21    17   ar
    35     8     3    1
    36    28    23   ar
    37    33    29   ar
@<TRIPOS>MOLECULE
*****
 33 37 0 0 0
SMALL
GASTEIGER

@<TRIPOS>ATOM
      1 C          63.4926   87.9563   13.2077 C.2     1  UNL1        0.2506
      2 O          63.7867   89.0356   12.2085 O.2     1  UNL1       -0.2699
      3 N          63.4185   88.2870   14.6689 N.am    1  UNL1       -0.2739
      4 C          63.1243   87.2077   15.6682 C.3     1  UNL1        0.1257
      5 C          63.0502   87.5384   17.1294 C.3     1  UNL1        0.1637
      6 O          63.2702   88.9484   17.5914 O.3     1  UNL1       -0.3502
      7 C          63.5644   90.0277   16.5921 C.3     1  UNL1        0.1605
      8 C          63.6385   89.6971   15.1309 C.3     1  UNL1        0.0920
      9 C          63.8097   89.8779   13.6517 C.3     1  UNL1        0.0228
     10 C          64.4980   82.8755   13.6254 C.3     1  UNL1        0.0310
     11 C          63.7753   84.0059   12.9546 C.ar    1  UNL1       -0.0216
     12 C          62.8326   83.7262   11.8219 C.ar    1  UNL1       -0.0026
     13 C          62.1099   84.8566   11.1511 C.ar    1  UNL1        0.0207
     14 C          62.3299   86.2666   11.6130 C.ar    1  UNL1        0.1072
     15 C          63.2726   86.5462   12.7457 C.ar    1  UNL1        0.0726
     16 C          63.9953   85.4159   13.4165 C.ar    1  UNL1        0.0018
     17 N          61.6072   87.3970   10.9422 N.ar    1  UNL1       -0.1477
     18 N          61.8867   87.9305    9.5685 N.ar    1  UNL1       -0.1447
     19 C          60.9303   89.0556    9.3046 C.ar    1  UNL1        0.1446
     20 C          60.0597   89.2174   10.5153 C.ar    1  UNL1        0.1446
     21 N          60.4780   88.1923   11.5274 N.ar    1  UNL1       -0.1447
     22 C          63.9180   91.1698   15.0791 C.3     1  UNL1        0.0471
     23 C          65.2955   91.6604   14.7449 C.ar    1  UNL1       -0.0189
     24 C          66.3156   91.8295   15.8315 C.ar    1  UNL1       -0.0041
     25 C          67.6932   92.3201   15.4974 C.ar    1  UNL1        0.0013
     26 C          68.0507   92.6416   14.0766 C.ar    1  UNL1        0.0209
     27 C          67.0306   92.4725   12.9899 C.ar    1  UNL1        0.1026
     28 C          65.6530   91.9819   13.3240 C.ar    1  UNL1        0.0167
     29 N          67.3881   92.7940   11.5690 N.ar    1  UNL1       -0.1478
     30 N          68.3204   92.0085   10.6951 N.ar    1  UNL1       -0.1447
     31 C          68.3845   92.6865    9.3586 C.ar    1  UNL1        0.1446
     32 C          67.4918   93.8910    9.4065 C.ar    1  UNL1        0.1446
     33 N          66.8759   93.9575   10.7726 N.ar    1  UNL1       -0.1447
@<TRIPOS>BOND
     1    10    11    1
     2    11    12   ar
     3    12    13   ar
     4    13    14   ar
     5    14    17    1
     6    17    18   ar
     7    18    19   ar
     8    19    20   ar
     9    20    21   ar
    10    14    15   ar
    11    15     1    1
    12     1     2    2
    13     1     3   am
    14     3     4    1
    15     4     5    1
    16     5     6    1
    17     6     7    1
    18     7     8    1
    19     8     9    1
    20     8    22    1
    21    22    23    1
    22    23    24   ar
    23    24    25   ar
    24    25    26   ar
    25    26    27   ar
    26    27    29    1
    27    29    30   ar
    28    30    31   ar
    29    31    32   ar
    30    32    33   ar
    31    27    28   ar
    32    15    16   ar
    33    16    11   ar
    34    21    17   ar
    35     8     3    1
    36    28    23   ar
    37    33    29   ar
