@<TRIPOS>MOLECULE
*****
 40 46 0 0 0
SMALL
GASTEIGER

@<TRIPOS>ATOM
      1 N          60.9162   88.6596    8.6892 N.pl3   1  UNL1       -0.2881
      2 C          61.8099   89.3359    9.6862 C.3     1  UNL1        0.0930
      3 C          62.3969   88.5502   10.8212 C.3     1  UNL1        0.0259
      4 C          62.0902   87.0884   10.9593 C.3     1  UNL1        0.0256
      5 C          62.9953   87.4058   12.1125 C.2     1  UNL1       -0.0304
      6 C          62.9204   85.9775   12.5645 C.2     1  UNL1       -0.0219
      7 C          62.0153   85.6601   11.4112 C.3     1  UNL1        0.0303
      8 C          61.1966   86.4122    9.9623 C.3     1  UNL1        0.0259
      9 C          60.6096   87.1978    8.8272 C.3     1  UNL1        0.0930
     10 C          59.0982   92.2182    3.6261 C.ar    1  UNL1        0.0168
     11 C          57.7204   91.8110    4.0569 C.ar    1  UNL1        0.0324
     12 C          57.5397   90.9271    5.2553 C.ar    1  UNL1        0.1582
     13 F          56.1617   90.5199    5.6860 F       1  UNL1       -0.2026
     14 C          58.7370   90.4504    6.0229 C.ar    1  UNL1        0.1166
     15 N          58.8694   89.5774    7.2355 N.ar    1  UNL1       -0.2218
     16 C          60.3292   89.4452    7.5541 C.ar    1  UNL1        0.1631
     17 S          61.0990   90.2364    6.5385 S.2     1  UNL1       -0.0515
     18 C          60.1149   90.8576    5.5921 C.ar    1  UNL1        0.0520
     19 C          60.2955   91.7415    4.3937 C.ar    1  UNL1        0.0093
     20 O          58.7830   92.6553    1.0846 O.co2   1  UNL1       -0.5446
     21 C          59.2789   93.1022    2.4277 C.2     1  UNL1        0.0730
     22 O          59.9555   94.4330    2.5727 O.co2   1  UNL1       -0.5446
     23 C          63.5074   85.1919   13.6995 C.ar    1  UNL1        0.0495
     24 C          63.8773   83.7386   13.6676 C.ar    1  UNL1        0.1222
     25 N          64.4260   83.3703   15.0141 N.ar    1  UNL1       -0.0774
     26 O          64.3953   84.5960   15.8783 O.2     1  UNL1       -0.3578
     27 C          63.8275   85.7219   15.0658 C.ar    1  UNL1        0.1535
     28 C          63.7251   82.8157   12.4950 C.ar    1  UNL1        0.0248
     29 C          64.4489   83.1055   11.2135 C.ar    1  UNL1        0.0016
     30 C          64.2967   82.1826   10.0409 C.ar    1  UNL1        0.0000
     31 C          63.4208   80.9697   10.1498 C.ar    1  UNL1       -0.0001
     32 C          62.6971   80.6799   11.4312 C.ar    1  UNL1        0.0039
     33 C          62.8492   81.6029   12.6038 C.ar    1  UNL1        0.0730
     34 C          62.1254   81.3130   13.8853 C.3     1  UNL1        0.4186
     35 F          61.4017   81.0231   15.1668 F       1  UNL1       -0.1659
     36 F          61.3666   82.5995   13.7478 F       1  UNL1       -0.1659
     37 F          62.8842   80.0263   14.0229 F       1  UNL1       -0.1659
     38 C          63.6169   87.1303   15.5369 C.3     1  UNL1        0.0602
     39 C          63.1179   88.0923   16.5740 C.3     1  UNL1        0.0081
     40 C          63.7510   88.6078   15.3157 C.3     1  UNL1        0.0081
@<TRIPOS>UNITY_ATOM_ATTR
20 1
charge -1
@<TRIPOS>BOND
     1    20    21   ar
     2    21    22   ar
     3    21    10    1
     4    10    11   ar
     5    11    12   ar
     6    12    13    1
     7    12    14   ar
     8    14    15   ar
     9    15    16   ar
    10    16     1    1
    11     1     2    1
    12     2     3    1
    13     3     4    1
    14     4     5    1
    15     5     6    2
    16     6    23    1
    17    23    24   ar
    18    24    28    1
    19    28    29   ar
    20    29    30   ar
    21    30    31   ar
    22    31    32   ar
    23    32    33   ar
    24    33    34    1
    25    34    35    1
    26    34    36    1
    27    34    37    1
    28    24    25   ar
    29    25    26   ar
    30    26    27   ar
    31    27    38    1
    32    38    39    1
    33    39    40    1
    34     6     7    1
    35     4     8    1
    36     8     9    1
    37    16    17   ar
    38    17    18   ar
    39    18    19   ar
    40    19    10   ar
    41    18    14   ar
    42     9     1    1
    43     7     4    1
    44    27    23   ar
    45    40    38    1
    46    33    28   ar
@<TRIPOS>MOLECULE
*****
 40 46 0 0 0
SMALL
GASTEIGER

@<TRIPOS>ATOM
      1 N          60.8149   88.7116    8.4512 N.pl3   1  UNL1       -0.2881
      2 C          61.5966   89.3985    9.5315 C.3     1  UNL1        0.0930
      3 C          62.1731   88.6003   10.6632 C.3     1  UNL1        0.0259
      4 C          61.9679   87.1153   10.7145 C.3     1  UNL1        0.0256
      5 C          62.7785   87.4376   11.9348 C.2     1  UNL1       -0.0304
      6 C          62.7833   85.9865   12.3149 C.2     1  UNL1       -0.0219
      7 C          61.9727   85.6642   11.0946 C.3     1  UNL1        0.0303
      8 C          61.1863   86.4284    9.6342 C.3     1  UNL1        0.0259
      9 C          60.6098   87.2266    8.5025 C.3     1  UNL1        0.0930
     10 C          59.0447   92.3066    3.3970 C.ar    1  UNL1        0.0168
     11 C          57.6608   91.9338    3.8391 C.ar    1  UNL1        0.0324
     12 C          57.4680   91.0562    5.0402 C.ar    1  UNL1        0.1582
     13 F          56.0839   90.6833    5.4823 F       1  UNL1       -0.2026
     14 C          58.6593   90.5514    5.7992 C.ar    1  UNL1        0.1166
     15 N          58.7798   89.6771    7.0121 N.ar    1  UNL1       -0.2218
     16 C          60.2384   89.5097    7.3195 C.ar    1  UNL1        0.1631
     17 S          61.0193   90.2805    6.2967 S.2     1  UNL1       -0.0515
     18 C          60.0433   90.9243    5.3571 C.ar    1  UNL1        0.0520
     19 C          60.2360   91.8019    4.1560 C.ar    1  UNL1        0.0093
     20 O          58.7650   92.7257    0.8482 O.co2   1  UNL1       -0.5446
     21 C          59.2375   93.1843    2.1958 C.2     1  UNL1        0.0730
     22 O          59.9030   94.5206    2.3425 O.co2   1  UNL1       -0.5446
     23 C          63.3598   85.1884   13.4466 C.ar    1  UNL1        0.0495
     24 C          63.8257   85.7351   14.7634 C.ar    1  UNL1        0.1222
     25 N          64.3255   84.5880   15.5907 N.ar    1  UNL1       -0.0774
     26 O          64.1685   83.3324   14.7852 O.2     1  UNL1       -0.3578
     27 C          63.5716   83.7035   13.4600 C.ar    1  UNL1        0.1535
     28 C          63.7968   87.1759   15.1798 C.ar    1  UNL1        0.0248
     29 C          64.4075   88.2240   14.2974 C.ar    1  UNL1        0.0016
     30 C          64.3787   89.6647   14.7138 C.ar    1  UNL1        0.0000
     31 C          63.7392   90.0574   16.0127 C.ar    1  UNL1       -0.0001
     32 C          63.1286   89.0093   16.8950 C.ar    1  UNL1        0.0039
     33 C          63.1574   87.5685   16.4786 C.ar    1  UNL1        0.0730
     34 C          62.5467   86.5204   17.3610 C.3     1  UNL1        0.4186
     35 F          61.9361   85.4723   18.2435 F       1  UNL1       -0.1659
     36 F          61.2033   86.7888   16.7503 F       1  UNL1       -0.1659
     37 F          63.8902   86.2519   17.9719 F       1  UNL1       -0.1659
     38 C          63.2441   82.7561   12.3442 C.3     1  UNL1        0.0602
     39 C          62.4963   81.5607   11.8323 C.3     1  UNL1        0.0081
     40 C          63.4247   82.3104   10.9234 C.3     1  UNL1        0.0081
@<TRIPOS>UNITY_ATOM_ATTR
20 1
charge -1
@<TRIPOS>BOND
     1    20    21   ar
     2    21    22   ar
     3    21    10    1
     4    10    11   ar
     5    11    12   ar
     6    12    13    1
     7    12    14   ar
     8    14    15   ar
     9    15    16   ar
    10    16     1    1
    11     1     2    1
    12     2     3    1
    13     3     4    1
    14     4     5    1
    15     5     6    2
    16     6    23    1
    17    23    24   ar
    18    24    28    1
    19    28    29   ar
    20    29    30   ar
    21    30    31   ar
    22    31    32   ar
    23    32    33   ar
    24    33    34    1
    25    34    35    1
    26    34    36    1
    27    34    37    1
    28    24    25   ar
    29    25    26   ar
    30    26    27   ar
    31    27    38    1
    32    38    39    1
    33    39    40    1
    34     6     7    1
    35     4     8    1
    36     8     9    1
    37    16    17   ar
    38    17    18   ar
    39    18    19   ar
    40    19    10   ar
    41    18    14   ar
    42     9     1    1
    43     7     4    1
    44    27    23   ar
    45    40    38    1
    46    33    28   ar
@<TRIPOS>MOLECULE
*****
 40 46 0 0 0
SMALL
GASTEIGER

@<TRIPOS>ATOM
      1 N          60.6303   87.7206    8.7648 N.pl3   1  UNL1       -0.2881
      2 C          61.3029   86.4488    8.3403 C.3     1  UNL1        0.0930
      3 C          61.8035   85.4840    9.3741 C.3     1  UNL1        0.0259
      4 C          61.6316   85.7910   10.8322 C.3     1  UNL1        0.0256
      5 C          62.3303   84.4642   10.7946 C.2     1  UNL1       -0.0304
      6 C          62.3395   84.4266   12.2941 C.2     1  UNL1       -0.0219
      7 C          61.6408   85.7533   12.3317 C.3     1  UNL1        0.0303
      8 C          60.9590   87.0628   11.2567 C.3     1  UNL1        0.0259
      9 C          60.4584   88.0276   10.2229 C.3     1  UNL1        0.0930
     10 C          59.1993   92.0165    4.1713 C.ar    1  UNL1        0.0168
     11 C          57.7855   91.6659    4.5287 C.ar    1  UNL1        0.0324
     12 C          57.5119   90.6550    5.6027 C.ar    1  UNL1        0.1582
     13 F          56.0979   90.3044    5.9601 F       1  UNL1       -0.2026
     14 C          58.6525   89.9948    6.3191 C.ar    1  UNL1        0.1166
     15 N          58.6916   88.9688    7.4127 N.ar    1  UNL1       -0.2218
     16 C          60.1297   88.6854    7.7311 C.ar    1  UNL1        0.1631
     17 S          60.9794   89.5362    6.8343 S.2     1  UNL1       -0.0515
     18 C          60.0664   90.3454    5.9616 C.ar    1  UNL1        0.0520
     19 C          60.3398   91.3563    4.8877 C.ar    1  UNL1        0.0093
     20 O          59.9823   94.3902    3.4622 O.co2   1  UNL1       -0.5446
     21 C          59.4728   93.0274    3.0973 C.2     1  UNL1        0.0730
     22 O          59.2368   92.6754    1.6584 O.co2   1  UNL1       -0.5446
     23 C          62.8402   83.4617   13.3278 C.ar    1  UNL1        0.0495
     24 C          63.0425   83.7567   14.7845 C.ar    1  UNL1        0.1222
     25 N          63.5537   82.5098   15.4432 N.ar    1  UNL1       -0.0774
     26 O          63.6674   81.4442   14.3936 O.2     1  UNL1       -0.3578
     27 C          63.2264   82.0326   13.0862 C.ar    1  UNL1        0.1535
     28 C          62.7797   85.0682   15.4634 C.ar    1  UNL1        0.0248
     29 C          61.4455   85.3308   16.0968 C.ar    1  UNL1        0.0016
     30 C          61.1828   86.6424   16.7757 C.ar    1  UNL1        0.0000
     31 C          62.2541   87.6913   16.8210 C.ar    1  UNL1       -0.0001
     32 C          63.5882   87.4287   16.1876 C.ar    1  UNL1        0.0039
     33 C          63.8509   86.1172   15.5088 C.ar    1  UNL1        0.0730
     34 C          65.1851   85.8546   14.8753 C.3     1  UNL1        0.4186
     35 F          66.5192   85.5920   14.2419 F       1  UNL1       -0.1659
     36 F          64.7326   86.5585   13.6304 F       1  UNL1       -0.1659
     37 F          65.6376   85.1506   16.1202 F       1  UNL1       -0.1659
     38 C          63.1797   81.3174   11.7685 C.3     1  UNL1        0.0602
     39 C          62.7742   80.1277   10.9498 C.3     1  UNL1        0.0081
     40 C          63.5045   81.2682   10.3049 C.3     1  UNL1        0.0081
@<TRIPOS>UNITY_ATOM_ATTR
20 1
charge -1
@<TRIPOS>BOND
     1    20    21   ar
     2    21    22   ar
     3    21    10    1
     4    10    11   ar
     5    11    12   ar
     6    12    13    1
     7    12    14   ar
     8    14    15   ar
     9    15    16   ar
    10    16     1    1
    11     1     2    1
    12     2     3    1
    13     3     4    1
    14     4     5    1
    15     5     6    2
    16     6    23    1
    17    23    24   ar
    18    24    28    1
    19    28    29   ar
    20    29    30   ar
    21    30    31   ar
    22    31    32   ar
    23    32    33   ar
    24    33    34    1
    25    34    35    1
    26    34    36    1
    27    34    37    1
    28    24    25   ar
    29    25    26   ar
    30    26    27   ar
    31    27    38    1
    32    38    39    1
    33    39    40    1
    34     6     7    1
    35     4     8    1
    36     8     9    1
    37    16    17   ar
    38    17    18   ar
    39    18    19   ar
    40    19    10   ar
    41    18    14   ar
    42     9     1    1
    43     7     4    1
    44    27    23   ar
    45    40    38    1
    46    33    28   ar
