@<TRIPOS>MOLECULE
*****
 38 40 0 0 0
SMALL
GASTEIGER

@<TRIPOS>ATOM
      1 C          62.3328   86.5590   10.6765 C.3     1  UNL1        0.1811
      2 O          63.0790   86.4135   11.9695 O.3     1  UNL1       -0.3784
      3 H          62.8648   87.1589   12.5521 H       1  UNL1        0.2106
      4 C          61.5866   86.7045    9.3834 C.3     1  UNL1        0.4197
      5 F          60.8404   86.8500    8.0904 F       1  UNL1       -0.1676
      6 F          62.8362   86.3691    8.6245 F       1  UNL1       -0.1676
      7 F          60.3370   87.0399   10.1423 F       1  UNL1       -0.1676
      8 C          61.7177   87.8331   11.1749 C.3     1  UNL1        0.0807
      9 C          65.3895   93.1108   11.6911 C.2     1  UNL1        0.1857
     10 C          64.6034   92.2827   10.7184 C.2     1  UNL1        0.0359
     11 C          63.8864   91.0520   11.1891 C.2     1  UNL1        0.0095
     12 C          63.0396   90.0459   10.4673 C.2     1  UNL1        0.0124
     13 C          62.5855   89.0217   11.4647 C.2     1  UNL1        0.0568
     14 N          63.1516   89.3947   12.8027 N.2     1  UNL1       -0.2661
     15 C          63.9556   90.6495   12.6324 C.3     1  UNL1        0.1661
     16 C          64.7418   91.4777   13.6051 C.2     1  UNL1        0.1025
     17 N          65.4587   92.7083   13.1344 N.2     1  UNL1       -0.2281
     18 S          66.1064   94.3414   11.2205 S.O2    1  UNL1        0.0250
     19 O          66.0878   93.8151    9.8160 O.2     1  UNL1       -0.1672
     20 O          66.1251   94.8678   12.6250 O.2     1  UNL1       -0.1672
     21 C          67.2459   95.6915    9.3155 C.3     1  UNL1        0.0276
     22 C          66.8234   95.5721   10.7497 C.3     1  UNL1        0.1577
     23 C          62.9479   85.2850   10.1782 C.3     1  UNL1        0.0398
     24 C          62.9306   84.0568   11.0392 C.3     1  UNL1        0.0216
     25 C          64.2632   83.6491   10.4843 C.3     1  UNL1        0.0045
     26 C          61.5979   84.4646   11.5940 C.3     1  UNL1        0.0045
     27 C          62.9133   82.8286   11.9001 C.ar    1  UNL1       -0.0182
     28 C          62.6485   81.4859   11.2861 C.ar    1  UNL1       -0.0018
     29 C          62.6312   80.2578   12.1471 C.ar    1  UNL1        0.0293
     30 C          62.8787   80.3723   13.6221 C.ar    1  UNL1        0.1403
     31 F          62.8615   79.1441   14.4831 F       1  UNL1       -0.2042
     32 C          63.1435   81.7150   14.2362 C.ar    1  UNL1        0.0338
     33 C          63.1608   82.9432   13.3751 C.ar    1  UNL1        0.0514
     34 C          63.4256   84.2859   13.9891 C.2     1  UNL1        0.2425
     35 N          62.3617   84.9616   14.8026 N.am    1  UNL1       -0.3253
     36 O          64.7542   84.9530   13.7897 O.2     1  UNL1       -0.2704
     37 H          61.4897   84.5237   14.9335 H       1  UNL1        0.1453
     38 H          62.5355   85.8428   15.2056 H       1  UNL1        0.1453
@<TRIPOS>BOND
     1    21    22    1
     2    22    18    1
     3    18    19    2
     4    18    20    2
     5    18     9    1
     6     9    10    2
     7    10    11    1
     8    11    12    2
     9    12    13    1
    10    13     8    1
    11     8     1    1
    12     1     2    1
    13     1    23    1
    14    23    24    1
    15    24    25    1
    16    24    26    1
    17    24    27    1
    18    27    28   ar
    19    28    29   ar
    20    29    30   ar
    21    30    31    1
    22    30    32   ar
    23    32    33   ar
    24    33    34    1
    25    34    35   am
    26    34    36    2
    27     1     4    1
    28     4     5    1
    29     4     6    1
    30     4     7    1
    31    13    14    2
    32    14    15    1
    33    15    16    1
    34    16    17    2
    35    17     9    1
    36    15    11    1
    37    33    27   ar
    38     2     3    1
    39    35    37    1
    40    35    38    1
@<TRIPOS>MOLECULE
*****
 38 40 0 0 0
SMALL
GASTEIGER

@<TRIPOS>ATOM
      1 C          63.5852   87.1394   15.9991 C.3     1  UNL1        0.1811
      2 O          64.2568   87.3099   14.6688 O.3     1  UNL1       -0.3784
      3 H          64.1106   88.2129   14.3461 H       1  UNL1        0.2106
      4 C          62.9136   86.9689   17.3296 C.3     1  UNL1        0.4197
      5 F          62.2420   86.7984   18.6599 F       1  UNL1       -0.1676
      6 F          61.9454   88.0602   16.9807 F       1  UNL1       -0.1676
      7 F          63.8817   85.8776   17.6784 F       1  UNL1       -0.1676
      8 C          63.1080   88.5602   15.9403 C.3     1  UNL1        0.0807
      9 C          65.4115   92.5680   11.4419 C.2     1  UNL1        0.1857
     10 C          65.6467   92.0577   12.8326 C.2     1  UNL1        0.0359
     11 C          64.7141   91.0446   13.4276 C.2     1  UNL1        0.0095
     12 C          64.6921   90.3635   14.7639 C.2     1  UNL1        0.0124
     13 C          63.5106   89.4398   14.7938 C.2     1  UNL1        0.0568
     14 N          62.8025   89.5499   13.4762 N.2     1  UNL1       -0.2661
     15 C          63.5463   90.5418   12.6317 C.3     1  UNL1        0.1661
     16 C          63.3111   91.0521   11.2409 C.2     1  UNL1        0.1025
     17 N          64.2437   92.0652   10.6460 N.2     1  UNL1       -0.2281
     18 S          66.3441   93.5810   10.8470 S.O2    1  UNL1        0.0250
     19 O          65.1815   94.4863   10.5661 O.2     1  UNL1       -0.1672
     20 O          67.5067   92.6758   11.1279 O.2     1  UNL1       -0.1672
     21 C          67.9536   94.3130    8.9434 C.3     1  UNL1        0.0276
     22 C          67.2766   94.5942   10.2521 C.3     1  UNL1        0.1577
     23 C          64.0624   85.7186   16.0580 C.3     1  UNL1        0.0398
     24 C          63.8374   84.8029   14.8914 C.3     1  UNL1        0.0216
     25 C          65.2859   84.9201   14.5201 C.3     1  UNL1        0.0045
     26 C          62.3888   84.6857   15.2628 C.3     1  UNL1        0.0045
     27 C          63.6125   83.8872   13.7249 C.ar    1  UNL1       -0.0182
     28 C          63.9913   82.4392   13.8240 C.ar    1  UNL1       -0.0018
     29 C          63.7664   81.5236   12.6575 C.ar    1  UNL1        0.0293
     30 C          63.1626   82.0558   11.3917 C.ar    1  UNL1        0.1403
     31 F          62.9376   81.1402   10.2251 F       1  UNL1       -0.2042
     32 C          62.7837   83.5038   11.2925 C.ar    1  UNL1        0.0338
     33 C          63.0087   84.4195   12.4591 C.ar    1  UNL1        0.0514
     34 C          62.6299   85.8675   12.3600 C.2     1  UNL1        0.2425
     35 N          61.2139   86.2527   12.0486 N.am    1  UNL1       -0.3253
     36 O          63.6669   86.9303   12.5722 O.2     1  UNL1       -0.2704
     37 H          60.5333   85.5551   11.9093 H       1  UNL1        0.1453
     38 H          60.9653   87.2030   11.9835 H       1  UNL1        0.1453
@<TRIPOS>BOND
     1    21    22    1
     2    22    18    1
     3    18    19    2
     4    18    20    2
     5    18     9    1
     6     9    10    2
     7    10    11    1
     8    11    12    2
     9    12    13    1
    10    13     8    1
    11     8     1    1
    12     1     2    1
    13     1    23    1
    14    23    24    1
    15    24    25    1
    16    24    26    1
    17    24    27    1
    18    27    28   ar
    19    28    29   ar
    20    29    30   ar
    21    30    31    1
    22    30    32   ar
    23    32    33   ar
    24    33    34    1
    25    34    35   am
    26    34    36    2
    27     1     4    1
    28     4     5    1
    29     4     6    1
    30     4     7    1
    31    13    14    2
    32    14    15    1
    33    15    16    1
    34    16    17    2
    35    17     9    1
    36    15    11    1
    37    33    27   ar
    38     2     3    1
    39    35    37    1
    40    35    38    1
@<TRIPOS>MOLECULE
*****
 38 40 0 0 0
SMALL
GASTEIGER

@<TRIPOS>ATOM
      1 C          63.4815   87.3445   16.0822 C.3     1  UNL1        0.1811
      2 O          63.8657   87.4372   14.6352 O.3     1  UNL1       -0.3784
      3 H          63.9059   88.3694   14.3704 H       1  UNL1        0.2106
      4 C          63.0973   87.2518   17.5292 C.3     1  UNL1        0.4197
      5 F          62.7132   87.1590   18.9762 F       1  UNL1       -0.1676
      6 F          63.1496   88.7468   17.6389 F       1  UNL1       -0.1676
      7 F          63.0451   85.7567   17.4195 F       1  UNL1       -0.1676
      8 C          63.4117   88.8408   16.1595 C.3     1  UNL1        0.0807
      9 C          65.5315   92.6487   11.4045 C.2     1  UNL1        0.1857
     10 C          65.8273   92.1917   12.8022 C.2     1  UNL1        0.0359
     11 C          64.9165   91.2107   13.4791 C.2     1  UNL1        0.0095
     12 C          64.9517   90.5830   14.8410 C.2     1  UNL1        0.0124
     13 C          63.7668   89.6711   14.9617 C.2     1  UNL1        0.0568
     14 N          62.9994   89.7352   13.6746 N.2     1  UNL1       -0.2661
     15 C          63.7099   90.6867   12.7582 C.3     1  UNL1        0.1661
     16 C          63.4141   91.1438   11.3604 C.2     1  UNL1        0.1025
     17 N          64.3249   92.1248   10.6836 N.2     1  UNL1       -0.2281
     18 S          66.4423   93.6297   10.7277 S.O2    1  UNL1        0.0250
     19 O          65.3059   94.6012   10.6065 O.2     1  UNL1       -0.1672
     20 O          67.5788   92.6582   10.8489 O.2     1  UNL1       -0.1672
     21 C          67.6188   94.4955    8.5792 C.3     1  UNL1        0.0276
     22 C          67.3531   94.6108   10.0509 C.3     1  UNL1        0.1577
     23 C          63.5514   85.8481   16.0049 C.3     1  UNL1        0.0398
     24 C          63.4884   85.1622   14.6724 C.3     1  UNL1        0.0216
     25 C          64.9641   85.3666   14.4975 C.3     1  UNL1        0.0045
     26 C          62.0127   84.9577   14.8473 C.3     1  UNL1        0.0045
     27 C          63.4255   84.4763   13.3399 C.ar    1  UNL1       -0.0182
     28 C          63.3820   85.2884   12.0796 C.ar    1  UNL1       -0.0018
     29 C          63.3191   84.6025   10.7471 C.ar    1  UNL1        0.0293
     30 C          63.2998   83.1043   10.6749 C.ar    1  UNL1        0.1403
     31 F          63.2369   82.4184    9.3425 F       1  UNL1       -0.2042
     32 C          63.3433   82.2921   11.9353 C.ar    1  UNL1        0.0338
     33 C          63.4062   82.9781   13.2678 C.ar    1  UNL1        0.0514
     34 C          63.4498   82.1660   14.5281 C.2     1  UNL1        0.2425
     35 N          62.3382   81.2090   14.8425 N.am    1  UNL1       -0.3253
     36 O          64.6049   82.3107   15.4741 O.2     1  UNL1       -0.2704
     37 H          61.5801   81.1141   14.2216 H       1  UNL1        0.1453
     38 H          62.3668   80.6760   15.6697 H       1  UNL1        0.1453
@<TRIPOS>BOND
     1    21    22    1
     2    22    18    1
     3    18    19    2
     4    18    20    2
     5    18     9    1
     6     9    10    2
     7    10    11    1
     8    11    12    2
     9    12    13    1
    10    13     8    1
    11     8     1    1
    12     1     2    1
    13     1    23    1
    14    23    24    1
    15    24    25    1
    16    24    26    1
    17    24    27    1
    18    27    28   ar
    19    28    29   ar
    20    29    30   ar
    21    30    31    1
    22    30    32   ar
    23    32    33   ar
    24    33    34    1
    25    34    35   am
    26    34    36    2
    27     1     4    1
    28     4     5    1
    29     4     6    1
    30     4     7    1
    31    13    14    2
    32    14    15    1
    33    15    16    1
    34    16    17    2
    35    17     9    1
    36    15    11    1
    37    33    27   ar
    38     2     3    1
    39    35    37    1
    40    35    38    1
@<TRIPOS>MOLECULE
*****
 38 40 0 0 0
SMALL
GASTEIGER

@<TRIPOS>ATOM
      1 C          62.3758   86.6580   10.7156 C.3     1  UNL1        0.1811
      2 O          63.1351   86.4702   11.9955 O.3     1  UNL1       -0.3784
      3 H          62.9540   87.2142   12.5910 H       1  UNL1        0.2106
      4 C          61.6164   86.8457    9.4357 C.3     1  UNL1        0.4197
      5 F          60.8571   87.0334    8.1558 F       1  UNL1       -0.1676
      6 F          60.4026   87.2555   10.2158 F       1  UNL1       -0.1676
      7 F          62.8302   86.4358    8.6555 F       1  UNL1       -0.1676
      8 C          61.8103   87.9446   11.2398 C.3     1  UNL1        0.0807
      9 C          65.8407   92.2803   13.8012 C.2     1  UNL1        0.1857
     10 C          65.1428   90.9802   14.0707 C.2     1  UNL1        0.0359
     11 C          64.2464   90.3800   13.0284 C.2     1  UNL1        0.0095
     12 C          63.4323   89.1202   13.0095 C.2     1  UNL1        0.0124
     13 C          62.7308   89.0417   11.6860 C.2     1  UNL1        0.0568
     14 N          63.1112   90.2528   10.8870 N.2     1  UNL1       -0.2661
     15 C          64.0479   91.0800   11.7167 C.3     1  UNL1        0.1661
     16 C          64.7458   92.3801   11.4472 C.2     1  UNL1        0.1025
     17 N          65.6422   92.9803   12.4895 N.2     1  UNL1       -0.2281
     18 S          66.7370   92.8804   14.8435 S.O2    1  UNL1        0.0250
     19 O          67.8250   93.0299   13.8217 O.2     1  UNL1       -0.1672
     20 O          65.6491   92.7309   15.8653 O.2     1  UNL1       -0.1672
     21 C          69.1205   93.4755   15.6891 C.3     1  UNL1        0.0276
     22 C          67.6335   93.4806   15.8857 C.3     1  UNL1        0.1577
     23 C          62.9412   85.3714   10.1914 C.3     1  UNL1        0.0398
     24 C          62.9456   84.1462   11.0569 C.3     1  UNL1        0.0216
     25 C          61.6328   84.5617   11.6517 C.3     1  UNL1        0.0045
     26 C          64.2585   83.7307   10.4621 C.3     1  UNL1        0.0045
     27 C          62.9500   82.9212   11.9225 C.ar    1  UNL1       -0.0182
     28 C          62.5375   81.5973   11.3505 C.ar    1  UNL1       -0.0018
     29 C          62.5419   80.3722   12.2160 C.ar    1  UNL1        0.0293
     30 C          62.9588   80.4710   13.6536 C.ar    1  UNL1        0.1403
     31 F          62.9632   79.2460   14.5191 F       1  UNL1       -0.2042
     32 C          63.3714   81.7949   14.2255 C.ar    1  UNL1        0.0338
     33 C          63.3670   83.0200   13.3599 C.ar    1  UNL1        0.0514
     34 C          63.7795   84.3439   13.9319 C.2     1  UNL1        0.2425
     35 N          65.2125   84.7805   13.8546 N.am    1  UNL1       -0.3253
     36 O          62.7591   85.2312   14.5810 O.2     1  UNL1       -0.2704
     37 H          65.8823   84.1981   13.4286 H       1  UNL1        0.1453
     38 H          65.4833   85.6494   14.2300 H       1  UNL1        0.1453
@<TRIPOS>BOND
     1    21    22    1
     2    22    18    1
     3    18    19    2
     4    18    20    2
     5    18     9    1
     6     9    10    2
     7    10    11    1
     8    11    12    2
     9    12    13    1
    10    13     8    1
    11     8     1    1
    12     1     2    1
    13     1    23    1
    14    23    24    1
    15    24    25    1
    16    24    26    1
    17    24    27    1
    18    27    28   ar
    19    28    29   ar
    20    29    30   ar
    21    30    31    1
    22    30    32   ar
    23    32    33   ar
    24    33    34    1
    25    34    35   am
    26    34    36    2
    27     1     4    1
    28     4     5    1
    29     4     6    1
    30     4     7    1
    31    13    14    2
    32    14    15    1
    33    15    16    1
    34    16    17    2
    35    17     9    1
    36    15    11    1
    37    33    27   ar
    38     2     3    1
    39    35    37    1
    40    35    38    1
@<TRIPOS>MOLECULE
*****
 38 40 0 0 0
SMALL
GASTEIGER

@<TRIPOS>ATOM
      1 C          61.3223   88.1627    9.1859 C.3     1  UNL1        0.1811
      2 O          62.6968   88.1569    9.7863 O.3     1  UNL1       -0.3784
      3 H          62.8453   88.9889   10.2623 H       1  UNL1        0.2106
      4 C          59.9477   88.1686    8.5854 C.3     1  UNL1        0.4197
      5 F          58.5731   88.1744    7.9850 F       1  UNL1       -0.1676
      6 F          60.4275   87.2775    7.4782 F       1  UNL1       -0.1676
      7 F          59.4679   89.0596    9.6925 F       1  UNL1       -0.1676
      8 C          61.0798   89.5295    9.7543 C.3     1  UNL1        0.0807
      9 C          65.6303   92.2908   13.3973 C.2     1  UNL1        0.1857
     10 C          64.4907   91.3160   13.4297 C.2     1  UNL1        0.0359
     11 C          63.7117   91.0310   12.1799 C.2     1  UNL1        0.0095
     12 C          62.5468   90.1261   11.9077 C.2     1  UNL1        0.0124
     13 C          62.1875   90.2568   10.4572 C.2     1  UNL1        0.0568
     14 N          63.1303   91.2424    9.8330 N.2     1  UNL1       -0.2661
     15 C          64.0723   91.7209   10.8977 C.3     1  UNL1        0.1661
     16 C          65.2120   92.6958   10.8654 C.2     1  UNL1        0.1025
     17 N          65.9909   92.9807   12.1151 N.2     1  UNL1       -0.2281
     18 S          66.4092   92.5757   14.6471 S.O2    1  UNL1        0.0250
     19 O          65.1592   92.4206   15.4616 O.2     1  UNL1       -0.1672
     20 O          67.6593   92.7308   13.8327 O.2     1  UNL1       -0.1672
     21 C          68.4884   93.6042   15.8173 C.3     1  UNL1        0.0276
     22 C          67.1882   92.8606   15.8970 C.3     1  UNL1        0.1577
     23 C          61.5648   86.7960    8.6174 C.3     1  UNL1        0.0398
     24 C          62.2389   85.7461    9.4502 C.3     1  UNL1        0.0216
     25 C          61.0407   85.6912   10.3509 C.3     1  UNL1        0.0045
     26 C          63.4371   85.8010    8.5495 C.3     1  UNL1        0.0045
     27 C          62.9129   84.6963   10.2829 C.ar    1  UNL1       -0.0182
     28 C          63.3547   83.4087    9.6530 C.ar    1  UNL1       -0.0018
     29 C          64.0288   82.3588   10.4857 C.ar    1  UNL1        0.0293
     30 C          64.2610   82.5966   11.9485 C.ar    1  UNL1        0.1403
     31 F          64.9350   81.5467   12.7812 F       1  UNL1       -0.2042
     32 C          63.8191   83.8842   12.5784 C.ar    1  UNL1        0.0338
     33 C          63.1451   84.9340   11.7456 C.ar    1  UNL1        0.0514
     34 C          62.7032   86.2216   12.3756 C.2     1  UNL1        0.2425
     35 N          63.6639   87.0175   13.2085 N.am    1  UNL1       -0.3253
     36 O          61.3007   86.7134   12.1726 O.2     1  UNL1       -0.2704
     37 H          64.5844   86.6948   13.3417 H       1  UNL1        0.1453
     38 H          63.3739   87.8626   13.6220 H       1  UNL1        0.1453
@<TRIPOS>BOND
     1    21    22    1
     2    22    18    1
     3    18    19    2
     4    18    20    2
     5    18     9    1
     6     9    10    2
     7    10    11    1
     8    11    12    2
     9    12    13    1
    10    13     8    1
    11     8     1    1
    12     1     2    1
    13     1    23    1
    14    23    24    1
    15    24    25    1
    16    24    26    1
    17    24    27    1
    18    27    28   ar
    19    28    29   ar
    20    29    30   ar
    21    30    31    1
    22    30    32   ar
    23    32    33   ar
    24    33    34    1
    25    34    35   am
    26    34    36    2
    27     1     4    1
    28     4     5    1
    29     4     6    1
    30     4     7    1
    31    13    14    2
    32    14    15    1
    33    15    16    1
    34    16    17    2
    35    17     9    1
    36    15    11    1
    37    33    27   ar
    38     2     3    1
    39    35    37    1
    40    35    38    1
@<TRIPOS>MOLECULE
*****
 38 40 0 0 0
SMALL
GASTEIGER

@<TRIPOS>ATOM
      1 C          64.9418   91.5694   14.5891 C.3     1  UNL1        0.1811
      2 O          63.5562   91.5828   14.0147 O.3     1  UNL1       -0.3784
      3 H          63.0812   90.7857   14.2975 H       1  UNL1        0.2106
      4 C          66.3274   91.5560   15.1636 C.3     1  UNL1        0.4197
      5 F          67.7130   91.5426   15.7380 F       1  UNL1       -0.1676
      6 F          65.9254   92.6048   16.1578 F       1  UNL1       -0.1676
      7 F          66.7294   90.5072   14.1694 F       1  UNL1       -0.1676
      8 C          64.6526   90.2573   15.2561 C.3     1  UNL1        0.0807
      9 C          63.0618   84.7669   12.2682 C.2     1  UNL1        0.1857
     10 C          63.7360   85.3208   13.4882 C.2     1  UNL1        0.0359
     11 C          63.8255   86.8050   13.6870 C.2     1  UNL1        0.0095
     12 C          64.4256   87.6366   14.7818 C.2     1  UNL1        0.0124
     13 C          64.2117   89.0807   14.4369 C.2     1  UNL1        0.0568
     14 N          63.4795   89.1416   13.1292 N.2     1  UNL1       -0.2661
     15 C          63.2409   87.7351   12.6657 C.3     1  UNL1        0.1661
     16 C          62.5667   87.1810   11.4456 C.2     1  UNL1        0.1025
     17 N          62.4772   85.6970   11.2468 N.2     1  UNL1       -0.2281
     18 S          62.9723   83.2829   12.0694 S.O2    1  UNL1        0.0250
     19 O          63.4188   83.4465   10.6468 O.2     1  UNL1       -0.1672
     20 O          62.5258   83.1192   13.4921 O.2     1  UNL1       -0.1672
     21 C          62.2899   80.9329   12.9423 C.3     1  UNL1        0.0276
     22 C          62.8828   81.7987   11.8706 C.3     1  UNL1        0.1577
     23 C          65.2310   92.8814   13.9222 C.3     1  UNL1        0.0398
     24 C          65.9974   92.9147   12.6332 C.3     1  UNL1        0.0216
     25 C          67.1438   93.5836   13.3321 C.3     1  UNL1        0.0045
     26 C          64.8510   92.2458   11.9343 C.3     1  UNL1        0.0045
     27 C          66.7639   92.9480   11.3442 C.ar    1  UNL1       -0.0182
     28 C          67.6270   91.7847   10.9546 C.ar    1  UNL1       -0.0018
     29 C          68.3935   91.8180    9.6657 C.ar    1  UNL1        0.0293
     30 C          68.2968   93.0146    8.7663 C.ar    1  UNL1        0.1403
     31 F          69.0632   93.0479    7.4773 F       1  UNL1       -0.2042
     32 C          67.4337   94.1779    9.1559 C.ar    1  UNL1        0.0338
     33 C          66.6672   94.1445   10.4449 C.ar    1  UNL1        0.0514
     34 C          65.8041   95.3078   10.8345 C.2     1  UNL1        0.2425
     35 N          64.6298   95.6890    9.9825 N.am    1  UNL1       -0.3253
     36 O          66.1152   96.0899   12.0761 O.2     1  UNL1       -0.2704
     37 H          64.4256   95.1756    9.1677 H       1  UNL1        0.1453
     38 H          64.0633   96.4525   10.2382 H       1  UNL1        0.1453
@<TRIPOS>BOND
     1    21    22    1
     2    22    18    1
     3    18    19    2
     4    18    20    2
     5    18     9    1
     6     9    10    2
     7    10    11    1
     8    11    12    2
     9    12    13    1
    10    13     8    1
    11     8     1    1
    12     1     2    1
    13     1    23    1
    14    23    24    1
    15    24    25    1
    16    24    26    1
    17    24    27    1
    18    27    28   ar
    19    28    29   ar
    20    29    30   ar
    21    30    31    1
    22    30    32   ar
    23    32    33   ar
    24    33    34    1
    25    34    35   am
    26    34    36    2
    27     1     4    1
    28     4     5    1
    29     4     6    1
    30     4     7    1
    31    13    14    2
    32    14    15    1
    33    15    16    1
    34    16    17    2
    35    17     9    1
    36    15    11    1
    37    33    27   ar
    38     2     3    1
    39    35    37    1
    40    35    38    1
@<TRIPOS>MOLECULE
*****
 38 40 0 0 0
SMALL
GASTEIGER

@<TRIPOS>ATOM
      1 C          65.7396   92.1890   13.9941 C.3     1  UNL1        0.1811
      2 O          64.7801   92.2751   12.8444 O.3     1  UNL1       -0.3784
      3 H          63.8808   92.0941   13.1596 H       1  UNL1        0.2106
      4 C          66.6992   92.1030   15.1438 C.3     1  UNL1        0.4197
      5 F          67.6587   92.0170   16.2935 F       1  UNL1       -0.1676
      6 F          67.5620   91.1644   14.3535 F       1  UNL1       -0.1676
      7 F          65.8364   93.0416   15.9341 F       1  UNL1       -0.1676
      8 C          64.6038   91.8619   14.9175 C.3     1  UNL1        0.0807
      9 C          63.4497   85.5399   15.4692 C.2     1  UNL1        0.1857
     10 C          64.1160   86.5704   14.6066 C.2     1  UNL1        0.0359
     11 C          64.0635   88.0190   14.9923 C.2     1  UNL1        0.0095
     12 C          64.6227   89.2511   14.3446 C.2     1  UNL1        0.0124
     13 C          64.2494   90.4306   15.1929 C.2     1  UNL1        0.0568
     14 N          63.4597   89.9276   16.3647 N.2     1  UNL1       -0.2661
     15 C          63.3448   88.4371   16.2407 C.3     1  UNL1        0.1661
     16 C          62.6785   87.4066   17.1034 C.2     1  UNL1        0.1025
     17 N          62.7310   85.9580   16.7176 N.2     1  UNL1       -0.2281
     18 S          63.5023   84.0914   15.0834 S.O2    1  UNL1        0.0250
     19 O          62.3277   83.8118   15.9734 O.2     1  UNL1       -0.1672
     20 O          64.6769   84.3709   14.1934 O.2     1  UNL1       -0.1672
     21 C          62.3181   81.9532   14.2025 C.3     1  UNL1        0.0276
     22 C          63.5547   82.6427   14.6977 C.3     1  UNL1        0.1577
     23 C          66.8754   92.5162   13.0706 C.3     1  UNL1        0.0398
     24 C          66.6396   93.3833   11.8695 C.3     1  UNL1        0.0216
     25 C          66.8559   94.6066   12.7103 C.3     1  UNL1        0.0045
     26 C          66.4234   92.1600   11.0288 C.3     1  UNL1        0.0045
     27 C          66.4039   94.2505   10.6685 C.ar    1  UNL1       -0.0182
     28 C          65.3634   95.3299   10.7154 C.ar    1  UNL1       -0.0018
     29 C          65.1277   96.1971    9.5144 C.ar    1  UNL1        0.0293
     30 C          65.9324   95.9847    8.2664 C.ar    1  UNL1        0.1403
     31 F          65.6966   96.8519    7.0654 F       1  UNL1       -0.2042
     32 C          66.9728   94.9053    8.2195 C.ar    1  UNL1        0.0338
     33 C          67.2085   94.0381    9.4206 C.ar    1  UNL1        0.0514
     34 C          68.2490   92.9586    9.3737 C.2     1  UNL1        0.2425
     35 N          69.4633   93.0488   10.2497 N.am    1  UNL1       -0.3253
     36 O          68.0752   91.7890    8.4508 O.2     1  UNL1       -0.2704
     37 H          69.5774   93.8164   10.8555 H       1  UNL1        0.1453
     38 H          70.1462   92.3403   10.2189 H       1  UNL1        0.1453
@<TRIPOS>BOND
     1    21    22    1
     2    22    18    1
     3    18    19    2
     4    18    20    2
     5    18     9    1
     6     9    10    2
     7    10    11    1
     8    11    12    2
     9    12    13    1
    10    13     8    1
    11     8     1    1
    12     1     2    1
    13     1    23    1
    14    23    24    1
    15    24    25    1
    16    24    26    1
    17    24    27    1
    18    27    28   ar
    19    28    29   ar
    20    29    30   ar
    21    30    31    1
    22    30    32   ar
    23    32    33   ar
    24    33    34    1
    25    34    35   am
    26    34    36    2
    27     1     4    1
    28     4     5    1
    29     4     6    1
    30     4     7    1
    31    13    14    2
    32    14    15    1
    33    15    16    1
    34    16    17    2
    35    17     9    1
    36    15    11    1
    37    33    27   ar
    38     2     3    1
    39    35    37    1
    40    35    38    1
@<TRIPOS>MOLECULE
*****
 38 40 0 0 0
SMALL
GASTEIGER

@<TRIPOS>ATOM
      1 C          63.7067   87.1800   15.1144 C.3     1  UNL1        0.1811
      2 O          64.0735   87.1934   13.6600 O.3     1  UNL1       -0.3784
      3 H          63.8313   88.0494   13.2733 H       1  UNL1        0.2106
      4 C          63.3400   87.1667   16.5688 C.3     1  UNL1        0.4197
      5 F          62.9733   87.1532   18.0232 F       1  UNL1       -0.1676
      6 F          62.6542   88.4909   16.4081 F       1  UNL1       -0.1676
      7 F          64.0258   85.8424   16.7295 F       1  UNL1       -0.1676
      8 C          63.1800   88.5793   14.9944 C.3     1  UNL1        0.0807
      9 C          66.3031   93.2527   11.8306 C.2     1  UNL1        0.1857
     10 C          65.0548   92.4210   11.8225 C.2     1  UNL1        0.0359
     11 C          64.8291   91.3965   12.8946 C.2     1  UNL1        0.0095
     12 C          63.7037   90.4369   13.1450 C.2     1  UNL1        0.0124
     13 C          64.0309   89.6510   14.3801 C.2     1  UNL1        0.0568
     14 N          65.3584   90.1249   14.8930 N.2     1  UNL1       -0.2661
     15 C          65.8517   91.2037   13.9749 C.3     1  UNL1        0.1661
     16 C          67.1001   92.0354   13.9831 C.2     1  UNL1        0.1025
     17 N          67.3257   93.0599   12.9109 N.2     1  UNL1       -0.2281
     18 S          66.5287   94.2772   10.7585 S.O2    1  UNL1        0.0250
     19 O          66.1859   95.3683   11.7290 O.2     1  UNL1       -0.1672
     20 O          66.8715   93.1860    9.7879 O.2     1  UNL1       -0.1672
     21 C          67.3415   94.8914    8.3685 C.3     1  UNL1        0.0276
     22 C          66.7543   95.3017    9.6864 C.3     1  UNL1        0.1577
     23 C          64.2335   85.7808   15.2344 C.3     1  UNL1        0.0398
     24 C          64.0359   84.8061   14.1114 C.3     1  UNL1        0.0216
     25 C          62.5821   85.1701   14.0512 C.3     1  UNL1        0.0045
     26 C          65.4899   84.4420   14.1715 C.3     1  UNL1        0.0045
     27 C          63.8383   83.8314   12.9885 C.ar    1  UNL1       -0.0182
     28 C          64.4255   84.1146   11.6375 C.ar    1  UNL1       -0.0018
     29 C          64.2279   83.1399   10.5146 C.ar    1  UNL1        0.0293
     30 C          63.4430   81.8821   10.7426 C.ar    1  UNL1        0.1403
     31 F          63.2454   80.9075    9.6197 F       1  UNL1       -0.2042
     32 C          62.8558   81.5990   12.0935 C.ar    1  UNL1        0.0338
     33 C          63.0535   82.5737   13.2165 C.ar    1  UNL1        0.0514
     34 C          62.4663   82.2905   14.5674 C.2     1  UNL1        0.2425
     35 N          63.2456   82.6161   15.8071 N.am    1  UNL1       -0.3253
     36 O          61.0999   81.6819   14.6787 O.2     1  UNL1       -0.2704
     37 H          64.1424   83.0156   15.7341 H       1  UNL1        0.1453
     38 H          62.8602   82.4303   16.6938 H       1  UNL1        0.1453
@<TRIPOS>BOND
     1    21    22    1
     2    22    18    1
     3    18    19    2
     4    18    20    2
     5    18     9    1
     6     9    10    2
     7    10    11    1
     8    11    12    2
     9    12    13    1
    10    13     8    1
    11     8     1    1
    12     1     2    1
    13     1    23    1
    14    23    24    1
    15    24    25    1
    16    24    26    1
    17    24    27    1
    18    27    28   ar
    19    28    29   ar
    20    29    30   ar
    21    30    31    1
    22    30    32   ar
    23    32    33   ar
    24    33    34    1
    25    34    35   am
    26    34    36    2
    27     1     4    1
    28     4     5    1
    29     4     6    1
    30     4     7    1
    31    13    14    2
    32    14    15    1
    33    15    16    1
    34    16    17    2
    35    17     9    1
    36    15    11    1
    37    33    27   ar
    38     2     3    1
    39    35    37    1
    40    35    38    1
@<TRIPOS>MOLECULE
*****
 38 40 0 0 0
SMALL
GASTEIGER

@<TRIPOS>ATOM
      1 C          64.7910   91.1637   14.1204 C.3     1  UNL1        0.1811
      2 O          64.9898   90.7717   12.6863 O.3     1  UNL1       -0.3784
      3 H          64.3924   90.0401   12.4652 H       1  UNL1        0.2106
      4 C          64.5921   91.5557   15.5546 C.3     1  UNL1        0.4197
      5 F          64.3933   91.9477   16.9887 F       1  UNL1       -0.1676
      6 F          65.5907   92.6628   15.3904 F       1  UNL1       -0.1676
      7 F          63.5935   90.4486   15.7187 F       1  UNL1       -0.1676
      8 C          63.7408   90.1024   14.2648 C.3     1  UNL1        0.0807
      9 C          61.0798   87.2750    9.1143 C.2     1  UNL1        0.1857
     10 C          62.1076   87.0904   10.1911 C.2     1  UNL1        0.0359
     11 C          62.3236   88.1661   11.2141 C.2     1  UNL1        0.0095
     12 C          63.2575   88.2660   12.3837 C.2     1  UNL1        0.0124
     13 C          63.0227   89.5879   13.0525 C.2     1  UNL1        0.0568
     14 N          61.9439   90.3051   12.2964 N.2     1  UNL1       -0.2661
     15 C          61.5118   89.4263   11.1601 C.3     1  UNL1        0.1661
     16 C          60.4840   89.6108   10.0832 C.2     1  UNL1        0.1025
     17 N          60.2681   88.5352    9.0603 N.2     1  UNL1       -0.2281
     18 S          60.8639   86.1993    8.0914 S.O2    1  UNL1        0.0250
     19 O          62.2885   85.7589    8.2538 O.2     1  UNL1       -0.1672
     20 O          59.4391   86.6397    7.9290 O.2     1  UNL1       -0.1672
     21 C          61.8142   84.5696    6.3051 C.3     1  UNL1        0.0276
     22 C          60.6479   85.1236    7.0685 C.3     1  UNL1        0.1577
     23 C          65.8411   92.2249   13.9759 C.3     1  UNL1        0.0398
     24 C          66.4056   92.5422   12.6229 C.3     1  UNL1        0.0216
     25 C          65.0165   92.7137   12.0836 C.3     1  UNL1        0.0045
     26 C          67.7948   92.3708   13.1622 C.3     1  UNL1        0.0045
     27 C          66.9700   92.8596   11.2699 C.ar    1  UNL1       -0.0182
     28 C          67.6901   91.7997   10.4902 C.ar    1  UNL1       -0.0018
     29 C          68.2545   92.1170    9.1371 C.ar    1  UNL1        0.0293
     30 C          68.0988   93.4944    8.5637 C.ar    1  UNL1        0.1403
     31 F          68.6632   93.8118    7.2107 F       1  UNL1       -0.2042
     32 C          67.3786   94.5543    9.3435 C.ar    1  UNL1        0.0338
     33 C          66.8142   94.2369   10.6965 C.ar    1  UNL1        0.0514
     34 C          66.0941   95.2968   11.4762 C.2     1  UNL1        0.2425
     35 N          65.0229   96.1148   10.8178 N.am    1  UNL1       -0.3253
     36 O          66.4451   95.5388   12.9143 O.2     1  UNL1       -0.2704
     37 H          64.7925   95.9560    9.8739 H       1  UNL1        0.1453
     38 H          64.5502   96.8105   11.3295 H       1  UNL1        0.1453
@<TRIPOS>BOND
     1    21    22    1
     2    22    18    1
     3    18    19    2
     4    18    20    2
     5    18     9    1
     6     9    10    2
     7    10    11    1
     8    11    12    2
     9    12    13    1
    10    13     8    1
    11     8     1    1
    12     1     2    1
    13     1    23    1
    14    23    24    1
    15    24    25    1
    16    24    26    1
    17    24    27    1
    18    27    28   ar
    19    28    29   ar
    20    29    30   ar
    21    30    31    1
    22    30    32   ar
    23    32    33   ar
    24    33    34    1
    25    34    35   am
    26    34    36    2
    27     1     4    1
    28     4     5    1
    29     4     6    1
    30     4     7    1
    31    13    14    2
    32    14    15    1
    33    15    16    1
    34    16    17    2
    35    17     9    1
    36    15    11    1
    37    33    27   ar
    38     2     3    1
    39    35    37    1
    40    35    38    1
