@<TRIPOS>MOLECULE
*****
 40 42 0 0 0
SMALL
GASTEIGER

@<TRIPOS>ATOM
      1 C          65.5965   93.6417   11.5625 C.ar    1  UNL1        0.0696
      2 C          66.2650   93.3558   12.8745 C.ar    1  UNL1        0.0057
      3 C          65.8635   92.1520   13.6743 C.ar    1  UNL1       -0.0041
      4 C          64.7935   91.2340   13.1620 C.ar    1  UNL1       -0.0185
      5 C          64.1250   91.5199   11.8501 C.ar    1  UNL1        0.0677
      6 C          64.5265   92.7237   11.0503 C.ar    1  UNL1        0.0095
      7 C          64.3920   90.0302   13.9618 C.3     1  UNL1        0.0257
      8 C          64.2865   88.6895   13.2975 C.3     1  UNL1        0.0259
      9 C          63.8850   87.4857   14.0972 C.3     1  UNL1        0.0940
     10 N          63.5890   87.6225   15.5613 N.am    1  UNL1       -0.2761
     11 C          63.1875   86.4187   16.3611 C.2     1  UNL1        0.2490
     12 O          62.8915   86.5556   17.8251 O.2     1  UNL1       -0.2699
     13 C          63.6945   88.9632   16.2256 C.3     1  UNL1        0.0940
     14 C          64.0960   90.1670   15.4259 C.3     1  UNL1        0.0259
     15 C          63.0821   85.0780   15.6967 C.ar    1  UNL1        0.0537
     16 C          64.3251   84.3328   15.3099 C.ar    1  UNL1        0.0059
     17 C          64.2196   82.9921   14.6455 C.ar    1  UNL1        0.0200
     18 C          62.8712   82.3966   14.3680 C.ar    1  UNL1        0.1217
     19 C          61.6282   83.1417   14.7549 C.ar    1  UNL1        0.0200
     20 C          61.7336   84.4825   15.4192 C.ar    1  UNL1        0.0059
     21 S          62.7657   81.0558   13.7037 S.O2    1  UNL1        0.0572
     22 N          62.6604   79.7151   13.0393 N.3     1  UNL1       -0.2035
     23 O          61.3726   80.9007   14.2375 O.2     1  UNL1       -0.1532
     24 O          64.1589   81.2109   13.1698 O.2     1  UNL1       -0.1532
     25 H          61.7433   79.3118   13.2310 H       1  UNL1        0.1442
     26 H          63.3862   79.0975   13.4029 H       1  UNL1        0.1442
     27 N          66.1871   94.7313    9.2792 N.am    1  UNL1       -0.1708
     28 C          65.9979   94.8455   10.7628 C.2     1  UNL1        0.3078
     29 O          66.2103   96.1635   11.4466 O.2     1  UNL1       -0.2516
     30 H          66.0477   93.8663    8.8303 H       1  UNL1        0.2545
     31 N          65.7884   96.3370    7.2760 N.pl3   1  UNL1       -0.1313
     32 C          66.5885   95.9351    8.4794 C.2     1  UNL1        0.3751
     33 N          67.7902   96.7371    8.8832 N.pl3   1  UNL1       -0.2906
     34 H          66.0520   97.1271    6.7511 H       1  UNL1        0.3060
     35 H          68.0537   97.5272    8.3583 H       1  UNL1        0.2545
     36 H          68.3153   96.4734    9.6730 H       1  UNL1        0.2545
     37 C          63.0549   90.6019   11.3378 C.3     1  UNL1        0.4183
     38 F          61.9849   89.6840   10.8255 F       1  UNL1       -0.1659
     39 F          62.1974   90.9411   12.5208 F       1  UNL1       -0.1659
     40 F          63.9124   90.2627   10.1547 F       1  UNL1       -0.1659
@<TRIPOS>BOND
     1    31    32    2
     2    32    33    1
     3    32    27    1
     4    27    28   am
     5    28    29    2
     6    28     1    1
     7     1     2   ar
     8     2     3   ar
     9     3     4   ar
    10     4     7    1
    11     7     8    1
    12     8     9    1
    13     9    10    1
    14    10    11   am
    15    11    12    2
    16    11    15    1
    17    15    16   ar
    18    16    17   ar
    19    17    18   ar
    20    18    21    1
    21    21    22    1
    22    21    23    2
    23    21    24    2
    24    18    19   ar
    25    19    20   ar
    26    10    13    1
    27    13    14    1
    28     4     5   ar
    29     5    37    1
    30    37    38    1
    31    37    39    1
    32    37    40    1
    33     5     6   ar
    34     6     1   ar
    35    14     7    1
    36    20    15   ar
    37    31    34    1
    38    33    35    1
    39    33    36    1
    40    27    30    1
    41    22    25    1
    42    22    26    1
@<TRIPOS>MOLECULE
*****
 40 42 0 0 0
SMALL
GASTEIGER

@<TRIPOS>ATOM
      1 C          65.4371   92.4124   13.1352 C.ar    1  UNL1        0.0696
      2 C          66.1691   91.6448   14.1958 C.ar    1  UNL1        0.0057
      3 C          65.7323   90.2546   14.5518 C.ar    1  UNL1       -0.0041
      4 C          64.5636   89.6321   13.8472 C.ar    1  UNL1       -0.0185
      5 C          63.8317   90.3997   12.7865 C.ar    1  UNL1        0.0677
      6 C          64.2685   91.7899   12.4306 C.ar    1  UNL1        0.0095
      7 C          64.1268   88.2420   14.2032 C.3     1  UNL1        0.0257
      8 C          64.1098   87.1695   13.1546 C.3     1  UNL1        0.0259
      9 C          63.6730   85.7794   13.5106 C.3     1  UNL1        0.0940
     10 N          63.2533   85.4617   14.9151 N.am    1  UNL1       -0.2761
     11 C          62.8165   84.0715   15.2711 C.2     1  UNL1        0.2490
     12 O          62.3968   83.7538   16.6757 O.2     1  UNL1       -0.2699
     13 C          63.2703   86.5341   15.9637 C.3     1  UNL1        0.0940
     14 C          63.7071   87.9242   15.6077 C.3     1  UNL1        0.0259
     15 C          62.7995   82.9991   14.2225 C.ar    1  UNL1        0.0537
     16 C          63.1057   83.3414   12.7945 C.ar    1  UNL1        0.0059
     17 C          63.0886   82.2690   11.7460 C.ar    1  UNL1        0.0200
     18 C          62.7654   80.8542   12.1253 C.ar    1  UNL1        0.1217
     19 C          62.4592   80.5119   13.5532 C.ar    1  UNL1        0.0200
     20 C          62.4762   81.5843   14.6019 C.ar    1  UNL1        0.0059
     21 S          62.7483   79.7818   11.0766 S.O2    1  UNL1        0.0572
     22 N          62.7313   78.7094   10.0280 N.3     1  UNL1       -0.2035
     23 O          62.4121   78.7625   12.1244 O.2     1  UNL1       -0.1532
     24 O          63.0846   80.8010   10.0288 O.2     1  UNL1       -0.1532
     25 H          62.5118   77.8128   10.4620 H       1  UNL1        0.1442
     26 H          63.6468   78.6559    9.5814 H       1  UNL1        0.1442
     27 N          65.7988   94.2710   11.3563 N.am    1  UNL1       -0.1708
     28 C          65.8739   93.8025   12.7792 C.2     1  UNL1        0.3078
     29 O          66.3858   94.7242   13.8462 O.2     1  UNL1       -0.2516
     30 H          65.4628   93.6661   10.6560 H       1  UNL1        0.2545
     31 N          67.0096   95.9042    9.7386 N.pl3   1  UNL1       -0.1313
     32 C          66.2356   95.6612   11.0003 C.2     1  UNL1        0.3751
     33 N          65.8983   96.8084   11.9060 N.pl3   1  UNL1       -0.2906
     34 H          67.2962   96.8166    9.5050 H       1  UNL1        0.3060
     35 H          66.1849   97.7208   11.6724 H       1  UNL1        0.2545
     36 H          65.3903   96.6489   12.7341 H       1  UNL1        0.2545
     37 C          62.6629   89.7772   12.0818 C.3     1  UNL1        0.4183
     38 F          61.4942   89.1547   11.3772 F       1  UNL1       -0.1659
     39 F          63.5020   89.5939   10.8521 F       1  UNL1       -0.1659
     40 F          61.8239   89.9605   13.3115 F       1  UNL1       -0.1659
@<TRIPOS>BOND
     1    31    32    2
     2    32    33    1
     3    32    27    1
     4    27    28   am
     5    28    29    2
     6    28     1    1
     7     1     2   ar
     8     2     3   ar
     9     3     4   ar
    10     4     7    1
    11     7     8    1
    12     8     9    1
    13     9    10    1
    14    10    11   am
    15    11    12    2
    16    11    15    1
    17    15    16   ar
    18    16    17   ar
    19    17    18   ar
    20    18    21    1
    21    21    22    1
    22    21    23    2
    23    21    24    2
    24    18    19   ar
    25    19    20   ar
    26    10    13    1
    27    13    14    1
    28     4     5   ar
    29     5    37    1
    30    37    38    1
    31    37    39    1
    32    37    40    1
    33     5     6   ar
    34     6     1   ar
    35    14     7    1
    36    20    15   ar
    37    31    34    1
    38    33    35    1
    39    33    36    1
    40    27    30    1
    41    22    25    1
    42    22    26    1
@<TRIPOS>MOLECULE
*****
 40 42 0 0 0
SMALL
GASTEIGER

@<TRIPOS>ATOM
      1 C          62.4095   94.8696    0.3766 C.ar    1  UNL1        0.0696
      2 C          61.0294   95.2121    0.8537 C.ar    1  UNL1        0.0057
      3 C          60.3584   94.3552    1.8860 C.ar    1  UNL1       -0.0041
      4 C          61.0677   93.1557    2.4411 C.ar    1  UNL1       -0.0185
      5 C          62.4478   92.8132    1.9639 C.ar    1  UNL1        0.0677
      6 C          63.1188   93.6701    0.9317 C.ar    1  UNL1        0.0095
      7 C          60.3967   92.2988    3.4733 C.3     1  UNL1        0.0257
      8 C          61.2193   91.4206    4.3688 C.3     1  UNL1        0.0259
      9 C          60.5484   90.5637    5.4011 C.3     1  UNL1        0.0940
     10 N          59.0548   90.5850    5.5378 N.am    1  UNL1       -0.2761
     11 C          58.3839   89.7280    6.5700 C.2     1  UNL1        0.2490
     12 O          56.8903   89.7493    6.7068 O.2     1  UNL1       -0.2699
     13 C          58.2322   91.4632    4.6423 C.3     1  UNL1        0.0940
     14 C          58.9031   92.3201    3.6101 C.3     1  UNL1        0.0259
     15 C          59.2065   88.8498    7.4655 C.ar    1  UNL1        0.0537
     16 C          59.1958   87.3622    7.2728 C.ar    1  UNL1        0.0059
     17 C          60.0184   86.4840    8.1683 C.ar    1  UNL1        0.0200
     18 C          60.8518   87.0933    9.2565 C.ar    1  UNL1        0.1217
     19 C          60.8625   88.5808    9.4493 C.ar    1  UNL1        0.0200
     20 C          60.0399   89.4591    8.5538 C.ar    1  UNL1        0.0059
     21 S          61.6744   86.2149   10.1521 S.O2    1  UNL1        0.0572
     22 N          62.4971   85.3367   11.0475 N.3     1  UNL1       -0.2035
     23 O          60.9580   86.7648   11.3496 O.2     1  UNL1       -0.1532
     24 O          62.3909   85.6651    8.9545 O.2     1  UNL1       -0.1532
     25 H          62.2242   85.4901   12.0183 H       1  UNL1        0.1442
     26 H          63.4848   85.5634   10.9321 H       1  UNL1        0.1442
     27 N          64.5025   95.4539   -1.0475 N.am    1  UNL1       -0.1708
     28 C          63.0805   95.7265   -0.6556 C.2     1  UNL1        0.3078
     29 O          62.3294   96.8559   -1.2960 O.2     1  UNL1       -0.2516
     30 H          64.9955   94.7126   -0.6271 H       1  UNL1        0.2545
     31 N          64.4705   96.6228   -3.3675 N.pl3   1  UNL1       -0.1313
     32 C          65.1734   96.3109   -2.0797 C.2     1  UNL1        0.3751
     33 N          66.5474   96.8558   -1.8241 N.pl3   1  UNL1       -0.2906
     34 H          64.9109   97.1852   -4.0450 H       1  UNL1        0.3060
     35 H          66.9878   97.4183   -2.5016 H       1  UNL1        0.2545
     36 H          67.0088   96.6511   -0.9788 H       1  UNL1        0.2545
     37 C          63.1571   91.6136    2.5191 C.3     1  UNL1        0.4183
     38 F          63.8664   90.4141    3.0741 F       1  UNL1       -0.1659
     39 F          63.9519   92.5040    3.4276 F       1  UNL1       -0.1659
     40 F          62.3624   90.7233    1.6105 F       1  UNL1       -0.1659
@<TRIPOS>BOND
     1    31    32    2
     2    32    33    1
     3    32    27    1
     4    27    28   am
     5    28    29    2
     6    28     1    1
     7     1     2   ar
     8     2     3   ar
     9     3     4   ar
    10     4     7    1
    11     7     8    1
    12     8     9    1
    13     9    10    1
    14    10    11   am
    15    11    12    2
    16    11    15    1
    17    15    16   ar
    18    16    17   ar
    19    17    18   ar
    20    18    21    1
    21    21    22    1
    22    21    23    2
    23    21    24    2
    24    18    19   ar
    25    19    20   ar
    26    10    13    1
    27    13    14    1
    28     4     5   ar
    29     5    37    1
    30    37    38    1
    31    37    39    1
    32    37    40    1
    33     5     6   ar
    34     6     1   ar
    35    14     7    1
    36    20    15   ar
    37    31    34    1
    38    33    35    1
    39    33    36    1
    40    27    30    1
    41    22    25    1
    42    22    26    1
@<TRIPOS>MOLECULE
*****
 40 42 0 0 0
SMALL
GASTEIGER

@<TRIPOS>ATOM
      1 C          62.8615   81.1284   11.5845 C.ar    1  UNL1        0.0696
      2 C          62.8619   81.9756   10.3467 C.ar    1  UNL1        0.0057
      3 C          62.8197   83.4706   10.4611 C.ar    1  UNL1       -0.0041
      4 C          62.7770   84.1185   11.8132 C.ar    1  UNL1       -0.0185
      5 C          62.7766   83.2712   13.0510 C.ar    1  UNL1        0.0677
      6 C          62.8189   81.7762   12.9366 C.ar    1  UNL1        0.0095
      7 C          62.7348   85.6135   11.9276 C.3     1  UNL1        0.0257
      8 C          63.7960   86.3366   12.7028 C.3     1  UNL1        0.0259
      9 C          63.7538   87.8317   12.8171 C.3     1  UNL1        0.0940
     10 N          62.6504   88.6036   12.1564 N.am    1  UNL1       -0.2761
     11 C          62.6081   90.0986   12.2708 C.2     1  UNL1        0.2490
     12 O          61.5047   90.8705   11.6101 O.2     1  UNL1       -0.2699
     13 C          61.5892   87.8804   11.3813 C.3     1  UNL1        0.0940
     14 C          61.6314   86.3854   11.2669 C.3     1  UNL1        0.0259
     15 C          63.6693   90.8218   13.0459 C.ar    1  UNL1        0.0537
     16 C          63.7355   90.6812   14.5379 C.ar    1  UNL1        0.0059
     17 C          64.7967   91.4043   15.3130 C.ar    1  UNL1        0.0200
     18 C          65.7918   92.2681   14.5963 C.ar    1  UNL1        0.1217
     19 C          65.7256   92.4087   13.1044 C.ar    1  UNL1        0.0200
     20 C          64.6644   91.6855   12.3291 C.ar    1  UNL1        0.0059
     21 S          66.8530   92.9913   15.3715 S.O2    1  UNL1        0.0572
     22 N          67.9142   93.7144   16.1466 N.3     1  UNL1       -0.2035
     23 O          66.0956   92.7411   16.6418 O.2     1  UNL1       -0.1532
     24 O          67.6104   93.2414   14.1012 O.2     1  UNL1       -0.1532
     25 H          67.6691   93.7179   17.1367 H       1  UNL1        0.1442
     26 H          67.9857   94.6748   15.8106 H       1  UNL1        0.1442
     27 N          63.2821   78.9911   10.1684 N.am    1  UNL1       -0.1708
     28 C          62.9037   79.6333   11.4701 C.2     1  UNL1        0.3078
     29 O          62.5676   78.7805   12.6573 O.2     1  UNL1       -0.2516
     30 H          63.5027   79.5509    9.3891 H       1  UNL1        0.2545
     31 N          62.3035   76.6602   10.7676 N.pl3   1  UNL1       -0.1313
     32 C          63.3243   77.4961   10.0540 C.2     1  UNL1        0.3751
     33 N          64.3874   76.8370    9.2260 N.pl3   1  UNL1       -0.2906
     34 H          62.3312   75.6789   10.6925 H       1  UNL1        0.3060
     35 H          64.4151   75.8557    9.1510 H       1  UNL1        0.2545
     36 H          65.0574   77.3856    8.7577 H       1  UNL1        0.2545
     37 C          62.7340   83.9191   14.4033 C.3     1  UNL1        0.4183
     38 F          62.6913   84.5668   15.7555 F       1  UNL1       -0.1659
     39 F          64.2229   83.7775   14.5181 F       1  UNL1       -0.1659
     40 F          61.2452   84.0606   14.2885 F       1  UNL1       -0.1659
@<TRIPOS>BOND
     1    31    32    2
     2    32    33    1
     3    32    27    1
     4    27    28   am
     5    28    29    2
     6    28     1    1
     7     1     2   ar
     8     2     3   ar
     9     3     4   ar
    10     4     7    1
    11     7     8    1
    12     8     9    1
    13     9    10    1
    14    10    11   am
    15    11    12    2
    16    11    15    1
    17    15    16   ar
    18    16    17   ar
    19    17    18   ar
    20    18    21    1
    21    21    22    1
    22    21    23    2
    23    21    24    2
    24    18    19   ar
    25    19    20   ar
    26    10    13    1
    27    13    14    1
    28     4     5   ar
    29     5    37    1
    30    37    38    1
    31    37    39    1
    32    37    40    1
    33     5     6   ar
    34     6     1   ar
    35    14     7    1
    36    20    15   ar
    37    31    34    1
    38    33    35    1
    39    33    36    1
    40    27    30    1
    41    22    25    1
    42    22    26    1
