@<TRIPOS>MOLECULE
*****
 28 31 0 0 0
SMALL
GASTEIGER

@<TRIPOS>ATOM
      1 N          60.0332   88.9582   10.9001 N.pl3   1  UNL1       -0.3039
      2 H          59.0852   88.8757   11.1525 H       1  UNL1        0.1496
      3 C          60.1932   87.9280    8.0870 C.3     1  UNL1        0.1363
      4 N          60.9180   87.2142    9.1895 N.ar    1  UNL1       -0.2669
      5 C          60.8379   87.7293   10.5960 C.ar    1  UNL1        0.2002
      6 N          61.5626   87.0156   11.6985 N.ar    1  UNL1       -0.2150
      7 C          62.3674   85.7868   11.3944 C.ar    1  UNL1        0.0895
      8 C          63.0921   85.0731   12.4969 C.ar    1  UNL1        0.0307
      9 C          63.8968   83.8443   12.1928 C.ar    1  UNL1        0.0592
     10 CL         64.6216   83.1306   13.2953 Cl      1  UNL1       -0.0822
     11 C          63.9768   83.3292   10.7863 C.ar    1  UNL1        0.0116
     12 C          63.2521   84.0429    9.6838 C.ar    1  UNL1        0.0071
     13 C          62.4474   85.2717    9.9879 C.ar    1  UNL1        0.0740
     14 C          61.7227   85.9854    8.8854 C.ar    1  UNL1        0.2643
     15 O          61.8027   85.4703    7.4789 O.2     1  UNL1       -0.2668
     16 C          60.6728   90.3125   10.8195 C.3     1  UNL1        0.0942
     17 C          62.0825   90.4479   10.3251 C.3     1  UNL1        0.0476
     18 C          63.1726   90.8585   11.2702 C.ar    1  UNL1       -0.0204
     19 C          64.1785   91.8897   10.8522 C.ar    1  UNL1       -0.0027
     20 C          65.2686   92.3003   11.7972 C.ar    1  UNL1        0.0188
     21 C          65.3527   91.6798   13.1602 C.ar    1  UNL1        0.0828
     22 C          64.3468   90.6486   13.5782 C.ar    1  UNL1        0.0188
     23 C          63.2567   90.2380   12.6332 C.ar    1  UNL1       -0.0027
     24 N          66.4428   92.0904   14.1053 N.ar    1  UNL1       -0.2281
     25 C          66.2600   92.5064   15.5348 C.ar    1  UNL1        0.1020
     26 C          67.6113   92.8302   16.0998 C.ar    1  UNL1        0.0431
     27 C          68.6293   92.6142   15.0194 C.ar    1  UNL1        0.1221
     28 N          67.9071   92.1570   13.7868 N.ar    1  UNL1       -0.1635
@<TRIPOS>BOND
     1     3     4    1
     2     4     5   ar
     3     5     1    1
     4     1    16    1
     5    16    17    1
     6    17    18    1
     7    18    19   ar
     8    19    20   ar
     9    20    21   ar
    10    21    24    1
    11    24    25   ar
    12    25    26   ar
    13    26    27   ar
    14    27    28   ar
    15    21    22   ar
    16    22    23   ar
    17     5     6   ar
    18     6     7   ar
    19     7     8   ar
    20     8     9   ar
    21     9    10    1
    22     9    11   ar
    23    11    12   ar
    24    12    13   ar
    25    13    14   ar
    26    14    15    2
    27    14     4   ar
    28    23    18   ar
    29    13     7   ar
    30    28    24   ar
    31     1     2    1
@<TRIPOS>MOLECULE
*****
 28 31 0 0 0
SMALL
GASTEIGER

@<TRIPOS>ATOM
      1 N          59.9023   87.9949   10.4203 N.pl3   1  UNL1       -0.3039
      2 H          58.9548   87.7818   10.2586 H       1  UNL1        0.1496
      3 C          60.9582   86.7719    7.8926 C.3     1  UNL1        0.1363
      4 N          61.4459   86.2815    9.2237 N.ar    1  UNL1       -0.2669
      5 C          60.9179   86.8930   10.4876 C.ar    1  UNL1        0.2002
      6 N          61.4056   86.4027   11.8186 N.ar    1  UNL1       -0.2150
      7 C          62.4213   85.3009   11.8859 C.ar    1  UNL1        0.0895
      8 C          62.9089   84.8106   13.2170 C.ar    1  UNL1        0.0307
      9 C          63.9245   83.7088   13.2842 C.ar    1  UNL1        0.0592
     10 CL         64.4122   83.2185   14.6153 Cl      1  UNL1       -0.0822
     11 C          64.4525   83.0973   12.0203 C.ar    1  UNL1        0.0116
     12 C          63.9648   83.5876   10.6892 C.ar    1  UNL1        0.0071
     13 C          62.9492   84.6894   10.6220 C.ar    1  UNL1        0.0740
     14 C          62.4615   85.1798    9.2909 C.ar    1  UNL1        0.2643
     15 O          62.9895   84.5683    8.0271 O.2     1  UNL1       -0.2668
     16 C          60.3302   89.4213   10.5994 C.3     1  UNL1        0.0942
     17 C          61.6680   89.8722   10.0925 C.3     1  UNL1        0.0476
     18 C          62.7066   90.3675   11.0548 C.ar    1  UNL1       -0.0204
     19 C          62.8484   89.7238   12.4022 C.ar    1  UNL1       -0.0027
     20 C          63.8870   90.2189   13.3645 C.ar    1  UNL1        0.0188
     21 C          64.7839   91.3579   12.9794 C.ar    1  UNL1        0.0828
     22 C          64.6422   92.0016   11.6320 C.ar    1  UNL1        0.0188
     23 C          63.6035   91.5064   10.6697 C.ar    1  UNL1       -0.0027
     24 N          65.8225   91.8531   13.9417 N.ar    1  UNL1       -0.2281
     25 C          67.3084   91.7815   13.7491 C.ar    1  UNL1        0.1020
     26 C          67.9618   92.3910   14.9539 C.ar    1  UNL1        0.0431
     27 C          66.8798   92.8394   15.8911 C.ar    1  UNL1        0.1221
     28 N          65.5577   92.5069   15.2655 N.ar    1  UNL1       -0.1635
@<TRIPOS>BOND
     1     3     4    1
     2     4     5   ar
     3     5     1    1
     4     1    16    1
     5    16    17    1
     6    17    18    1
     7    18    19   ar
     8    19    20   ar
     9    20    21   ar
    10    21    24    1
    11    24    25   ar
    12    25    26   ar
    13    26    27   ar
    14    27    28   ar
    15    21    22   ar
    16    22    23   ar
    17     5     6   ar
    18     6     7   ar
    19     7     8   ar
    20     8     9   ar
    21     9    10    1
    22     9    11   ar
    23    11    12   ar
    24    12    13   ar
    25    13    14   ar
    26    14    15    2
    27    14     4   ar
    28    23    18   ar
    29    13     7   ar
    30    28    24   ar
    31     1     2    1
@<TRIPOS>MOLECULE
*****
 28 31 0 0 0
SMALL
GASTEIGER

@<TRIPOS>ATOM
      1 N          64.3270   88.1157   14.4620 N.pl3   1  UNL1       -0.3039
      2 H          65.2740   87.8800   14.5918 H       1  UNL1        0.1496
      3 C          64.1593   85.1383   14.1354 C.3     1  UNL1        0.1363
      4 N          63.4745   86.0404   13.1518 N.ar    1  UNL1       -0.2669
      5 C          63.5584   87.5292   13.3151 C.ar    1  UNL1        0.2002
      6 N          62.8737   88.4313   12.3316 N.ar    1  UNL1       -0.2150
      7 C          62.1051   87.8447   11.1848 C.ar    1  UNL1        0.0895
      8 C          61.4205   88.7469   10.2013 C.ar    1  UNL1        0.0307
      9 C          60.6519   88.1603    9.0545 C.ar    1  UNL1        0.0592
     10 CL         59.9672   89.0625    8.0709 Cl      1  UNL1       -0.0822
     11 C          60.5680   86.6716    8.8911 C.ar    1  UNL1        0.0116
     12 C          61.2527   85.7694    9.8746 C.ar    1  UNL1        0.0071
     13 C          62.0213   86.3560   11.0214 C.ar    1  UNL1        0.0740
     14 C          62.7060   85.4539   12.0050 C.ar    1  UNL1        0.2643
     15 O          62.6221   83.9651   11.8417 O.2     1  UNL1       -0.2668
     16 C          63.6527   89.0614   15.4112 C.3     1  UNL1        0.0942
     17 C          64.0743   90.5000   15.4625 C.3     1  UNL1        0.0476
     18 C          64.8222   91.1039   14.3109 C.ar    1  UNL1       -0.0204
     19 C          66.2827   91.4179   14.4472 C.ar    1  UNL1       -0.0027
     20 C          67.0306   92.0217   13.2957 C.ar    1  UNL1        0.0188
     21 C          66.3181   92.3117   12.0080 C.ar    1  UNL1        0.0828
     22 C          64.8577   91.9977   11.8718 C.ar    1  UNL1        0.0188
     23 C          64.1097   91.3939   13.0232 C.ar    1  UNL1       -0.0027
     24 N          67.0661   92.9156   10.8565 N.ar    1  UNL1       -0.2281
     25 C          67.9599   92.1799    9.9027 C.ar    1  UNL1        0.1020
     26 C          68.4977   93.1708    8.9134 C.ar    1  UNL1        0.0431
     27 C          67.9362   94.5190    9.2557 C.ar    1  UNL1        0.1221
     28 N          67.0515   94.3612   10.4567 N.ar    1  UNL1       -0.1635
@<TRIPOS>BOND
     1     3     4    1
     2     4     5   ar
     3     5     1    1
     4     1    16    1
     5    16    17    1
     6    17    18    1
     7    18    19   ar
     8    19    20   ar
     9    20    21   ar
    10    21    24    1
    11    24    25   ar
    12    25    26   ar
    13    26    27   ar
    14    27    28   ar
    15    21    22   ar
    16    22    23   ar
    17     5     6   ar
    18     6     7   ar
    19     7     8   ar
    20     8     9   ar
    21     9    10    1
    22     9    11   ar
    23    11    12   ar
    24    12    13   ar
    25    13    14   ar
    26    14    15    2
    27    14     4   ar
    28    23    18   ar
    29    13     7   ar
    30    28    24   ar
    31     1     2    1
@<TRIPOS>MOLECULE
*****
 28 31 0 0 0
SMALL
GASTEIGER

@<TRIPOS>ATOM
      1 N          62.7098   83.6549   15.1389 N.pl3   1  UNL1       -0.3039
      2 H          63.0784   82.8243   15.5177 H       1  UNL1        0.1496
      3 C          64.3175   81.8163   13.3968 C.3     1  UNL1        0.1363
      4 N          63.6204   83.0005   12.7953 N.ar    1  UNL1       -0.2669
      5 C          62.8165   83.9198   13.6663 C.ar    1  UNL1        0.2002
      6 N          62.1194   85.1039   13.0648 N.ar    1  UNL1       -0.2150
      7 C          62.2262   85.3688   11.5922 C.ar    1  UNL1        0.0895
      8 C          61.5291   86.5530   10.9907 C.ar    1  UNL1        0.0307
      9 C          61.6359   86.8178    9.5182 C.ar    1  UNL1        0.0592
     10 CL         60.9388   88.0020    8.9166 Cl      1  UNL1       -0.0822
     11 C          62.4397   85.8985    8.6471 C.ar    1  UNL1        0.0116
     12 C          63.1368   84.7144    9.2486 C.ar    1  UNL1        0.0071
     13 C          63.0300   84.4496   10.7212 C.ar    1  UNL1        0.0740
     14 C          63.7271   83.2654   11.3227 C.ar    1  UNL1        0.2643
     15 O          64.5310   82.3461   10.4517 O.2     1  UNL1       -0.2668
     16 C          62.0414   84.6555   16.0344 C.3     1  UNL1        0.0942
     17 C          62.8697   85.6114   16.8408 C.3     1  UNL1        0.0476
     18 C          63.3710   86.8801   16.2170 C.ar    1  UNL1       -0.0204
     19 C          62.9699   88.2071   16.7900 C.ar    1  UNL1       -0.0027
     20 C          63.4711   89.4758   16.1663 C.ar    1  UNL1        0.0188
     21 C          64.3735   89.4175   14.9696 C.ar    1  UNL1        0.0828
     22 C          64.7746   88.0906   14.3965 C.ar    1  UNL1        0.0188
     23 C          64.2734   86.8219   15.0202 C.ar    1  UNL1       -0.0027
     24 N          64.8749   90.6863   14.3458 N.ar    1  UNL1       -0.2281
     25 C          64.4630   91.2359   13.0123 C.ar    1  UNL1        0.1020
     26 C          65.2096   92.5174   12.7884 C.ar    1  UNL1        0.0431
     27 C          66.0830   92.7599   13.9836 C.ar    1  UNL1        0.1221
     28 N          65.8761   91.6282   14.9461 N.ar    1  UNL1       -0.1635
@<TRIPOS>BOND
     1     3     4    1
     2     4     5   ar
     3     5     1    1
     4     1    16    1
     5    16    17    1
     6    17    18    1
     7    18    19   ar
     8    19    20   ar
     9    20    21   ar
    10    21    24    1
    11    24    25   ar
    12    25    26   ar
    13    26    27   ar
    14    27    28   ar
    15    21    22   ar
    16    22    23   ar
    17     5     6   ar
    18     6     7   ar
    19     7     8   ar
    20     8     9   ar
    21     9    10    1
    22     9    11   ar
    23    11    12   ar
    24    12    13   ar
    25    13    14   ar
    26    14    15    2
    27    14     4   ar
    28    23    18   ar
    29    13     7   ar
    30    28    24   ar
    31     1     2    1
@<TRIPOS>MOLECULE
*****
 28 31 0 0 0
SMALL
GASTEIGER

@<TRIPOS>ATOM
      1 N          63.8017   90.0594   16.2161 N.pl3   1  UNL1       -0.3039
      2 H          64.5127   90.4537   16.7713 H       1  UNL1        0.1496
      3 C          65.7781   91.9580   14.9957 C.3     1  UNL1        0.1363
      4 N          64.7133   91.3335   14.1434 N.ar    1  UNL1       -0.2669
      5 C          63.7252   90.3842   14.7536 C.ar    1  UNL1        0.2002
      6 N          62.6605   89.7596   13.9014 N.ar    1  UNL1       -0.2150
      7 C          62.5839   90.0844   12.4389 C.ar    1  UNL1        0.0895
      8 C          61.5192   89.4599   11.5867 C.ar    1  UNL1        0.0307
      9 C          61.4427   89.7846   10.1243 C.ar    1  UNL1        0.0592
     10 CL         60.3779   89.1601    9.2720 Cl      1  UNL1       -0.0822
     11 C          62.4309   90.7339    9.5141 C.ar    1  UNL1        0.0116
     12 C          63.4956   91.3585   10.3664 C.ar    1  UNL1        0.0071
     13 C          63.5721   91.0337   11.8287 C.ar    1  UNL1        0.0740
     14 C          64.6368   91.6583   12.6810 C.ar    1  UNL1        0.2643
     15 O          65.6250   92.6076   12.0709 O.2     1  UNL1       -0.2668
     16 C          62.7951   89.1339   16.8325 C.3     1  UNL1        0.0942
     17 C          63.2268   87.7944   17.3514 C.3     1  UNL1        0.0476
     18 C          63.1974   86.5958   16.4499 C.ar    1  UNL1       -0.0204
     19 C          64.1589   86.4964   15.3029 C.ar    1  UNL1       -0.0027
     20 C          64.1295   85.2979   14.4014 C.ar    1  UNL1        0.0188
     21 C          63.1387   84.1988   14.6470 C.ar    1  UNL1        0.0828
     22 C          62.1772   84.2983   15.7940 C.ar    1  UNL1        0.0188
     23 C          62.2066   85.4968   16.6955 C.ar    1  UNL1       -0.0027
     24 N          63.1093   83.0003   13.7455 N.ar    1  UNL1       -0.2281
     25 C          62.8949   83.0186   12.2610 C.ar    1  UNL1        0.1020
     26 C          62.9422   81.6026   11.7683 C.ar    1  UNL1        0.0431
     27 C          63.1858   80.7091   12.9483 C.ar    1  UNL1        0.1221
     28 N          63.2891   81.5729   14.1703 N.ar    1  UNL1       -0.1635
@<TRIPOS>BOND
     1     3     4    1
     2     4     5   ar
     3     5     1    1
     4     1    16    1
     5    16    17    1
     6    17    18    1
     7    18    19   ar
     8    19    20   ar
     9    20    21   ar
    10    21    24    1
    11    24    25   ar
    12    25    26   ar
    13    26    27   ar
    14    27    28   ar
    15    21    22   ar
    16    22    23   ar
    17     5     6   ar
    18     6     7   ar
    19     7     8   ar
    20     8     9   ar
    21     9    10    1
    22     9    11   ar
    23    11    12   ar
    24    12    13   ar
    25    13    14   ar
    26    14    15    2
    27    14     4   ar
    28    23    18   ar
    29    13     7   ar
    30    28    24   ar
    31     1     2    1
@<TRIPOS>MOLECULE
*****
 28 31 0 0 0
SMALL
GASTEIGER

@<TRIPOS>ATOM
      1 N          63.4887   85.4923   14.3321 N.pl3   1  UNL1       -0.3039
      2 H          63.1036   84.8563   14.9773 H       1  UNL1        0.1496
      3 C          64.6566   83.2407   12.7302 C.3     1  UNL1        0.1363
      4 N          63.7527   84.2400   12.0710 N.ar    1  UNL1       -0.2669
      5 C          63.1687   85.3659   12.8720 C.ar    1  UNL1        0.2002
      6 N          62.2649   86.3652   12.2130 N.ar    1  UNL1       -0.2150
      7 C          61.9449   86.2387   10.7529 C.ar    1  UNL1        0.0895
      8 C          61.0411   87.2380   10.0939 C.ar    1  UNL1        0.0307
      9 C          60.7211   87.1115    8.6339 C.ar    1  UNL1        0.0592
     10 CL         59.8172   88.1109    7.9748 Cl      1  UNL1       -0.0822
     11 C          61.3051   85.9857    7.8330 C.ar    1  UNL1        0.0116
     12 C          62.2089   84.9864    8.4920 C.ar    1  UNL1        0.0071
     13 C          62.5288   85.1129    9.9520 C.ar    1  UNL1        0.0740
     14 C          63.4327   84.1135   10.6111 C.ar    1  UNL1        0.2643
     15 O          64.0166   82.9877    9.8101 O.2     1  UNL1       -0.2668
     16 C          64.3955   86.5879   14.8090 C.3     1  UNL1        0.0942
     17 C          63.8250   87.9232   15.1850 C.3     1  UNL1        0.0476
     18 C          64.2303   89.1524   14.4267 C.ar    1  UNL1       -0.0204
     19 C          63.5869   89.4666   13.1086 C.ar    1  UNL1       -0.0027
     20 C          63.9922   90.6958   12.3504 C.ar    1  UNL1        0.0188
     21 C          65.0407   91.6106   12.9102 C.ar    1  UNL1        0.0828
     22 C          65.6841   91.2964   14.2283 C.ar    1  UNL1        0.0188
     23 C          65.2788   90.0673   14.9866 C.ar    1  UNL1       -0.0027
     24 N          65.4460   92.8398   12.1520 N.ar    1  UNL1       -0.2281
     25 C          65.1850   93.1055   10.6990 C.ar    1  UNL1        0.1020
     26 C          65.7611   94.4490   10.3626 C.ar    1  UNL1        0.0431
     27 C          66.3782   95.0137   11.6078 C.ar    1  UNL1        0.1221
     28 N          66.1835   94.0191   12.7137 N.ar    1  UNL1       -0.1635
@<TRIPOS>BOND
     1     3     4    1
     2     4     5   ar
     3     5     1    1
     4     1    16    1
     5    16    17    1
     6    17    18    1
     7    18    19   ar
     8    19    20   ar
     9    20    21   ar
    10    21    24    1
    11    24    25   ar
    12    25    26   ar
    13    26    27   ar
    14    27    28   ar
    15    21    22   ar
    16    22    23   ar
    17     5     6   ar
    18     6     7   ar
    19     7     8   ar
    20     8     9   ar
    21     9    10    1
    22     9    11   ar
    23    11    12   ar
    24    12    13   ar
    25    13    14   ar
    26    14    15    2
    27    14     4   ar
    28    23    18   ar
    29    13     7   ar
    30    28    24   ar
    31     1     2    1
@<TRIPOS>MOLECULE
*****
 28 31 0 0 0
SMALL
GASTEIGER

@<TRIPOS>ATOM
      1 N          63.2335   88.8150   13.1217 N.pl3   1  UNL1       -0.3039
      2 H          62.6386   89.5447   12.8337 H       1  UNL1        0.1496
      3 C          62.1431   88.4776   10.3473 C.3     1  UNL1        0.1363
      4 N          62.5249   87.2725   11.1548 N.ar    1  UNL1       -0.2669
      5 C          63.0700   87.4412   12.5420 C.ar    1  UNL1        0.2002
      6 N          63.4517   86.2362   13.3496 N.ar    1  UNL1       -0.2150
      7 C          63.2883   84.8623   12.7699 C.ar    1  UNL1        0.0895
      8 C          63.6700   83.6573   13.5774 C.ar    1  UNL1        0.0307
      9 C          63.5065   82.2835   12.9978 C.ar    1  UNL1        0.0592
     10 CL         63.8883   81.0784   13.8053 Cl      1  UNL1       -0.0822
     11 C          62.9614   82.1148   11.6106 C.ar    1  UNL1        0.0116
     12 C          62.5797   83.3198   10.8030 C.ar    1  UNL1        0.0071
     13 C          62.7431   84.6936   11.3827 C.ar    1  UNL1        0.0740
     14 C          62.3614   85.8987   10.5752 C.ar    1  UNL1        0.2643
     15 O          61.8162   85.7300    9.1880 O.2     1  UNL1       -0.2668
     16 C          64.3032   89.0770   14.1400 C.3     1  UNL1        0.0942
     17 C          64.5610   90.4766   14.6137 C.3     1  UNL1        0.0476
     18 C          65.0579   91.5146   13.6515 C.ar    1  UNL1       -0.0204
     19 C          64.5569   91.5275   12.2377 C.ar    1  UNL1       -0.0027
     20 C          65.0537   92.5654   11.2754 C.ar    1  UNL1        0.0188
     21 C          66.0515   93.5903   11.7270 C.ar    1  UNL1        0.0828
     22 C          66.5525   93.5774   13.1408 C.ar    1  UNL1        0.0188
     23 C          66.0557   92.5395   14.1030 C.ar    1  UNL1       -0.0027
     24 N          66.5484   94.6283   10.7647 N.ar    1  UNL1       -0.2281
     25 C          67.2559   94.3626    9.4690 C.ar    1  UNL1        0.1020
     26 C          67.5697   95.6842    8.8328 C.ar    1  UNL1        0.0431
     27 C          67.0561   96.7667    9.7352 C.ar    1  UNL1        0.1221
     28 N          66.4248   96.1141   10.9292 N.ar    1  UNL1       -0.1635
@<TRIPOS>BOND
     1     3     4    1
     2     4     5   ar
     3     5     1    1
     4     1    16    1
     5    16    17    1
     6    17    18    1
     7    18    19   ar
     8    19    20   ar
     9    20    21   ar
    10    21    24    1
    11    24    25   ar
    12    25    26   ar
    13    26    27   ar
    14    27    28   ar
    15    21    22   ar
    16    22    23   ar
    17     5     6   ar
    18     6     7   ar
    19     7     8   ar
    20     8     9   ar
    21     9    10    1
    22     9    11   ar
    23    11    12   ar
    24    12    13   ar
    25    13    14   ar
    26    14    15    2
    27    14     4   ar
    28    23    18   ar
    29    13     7   ar
    30    28    24   ar
    31     1     2    1
@<TRIPOS>MOLECULE
*****
 28 31 0 0 0
SMALL
GASTEIGER

@<TRIPOS>ATOM
      1 N          64.9743   83.8906   13.7969 N.pl3   1  UNL1       -0.3039
      2 H          65.9302   83.6586   13.8368 H       1  UNL1        0.1496
      3 C          63.1767   83.4567   16.1592 C.3     1  UNL1        0.1363
      4 N          63.5560   84.8495   15.7512 N.ar    1  UNL1       -0.2669
      5 C          64.4548   85.0664   14.5700 C.ar    1  UNL1        0.2002
      6 N          64.8341   86.4591   14.1619 N.ar    1  UNL1       -0.2150
      7 C          64.3146   87.6349   14.9351 C.ar    1  UNL1        0.0895
      8 C          64.6940   89.0276   14.5270 C.ar    1  UNL1        0.0307
      9 C          64.1745   90.2033   15.3001 C.ar    1  UNL1        0.0592
     10 CL         64.5538   91.5961   14.8920 Cl      1  UNL1       -0.0822
     11 C          63.2757   89.9864   16.4813 C.ar    1  UNL1        0.0116
     12 C          62.8964   88.5937   16.8893 C.ar    1  UNL1        0.0071
     13 C          63.4159   87.4180   16.1162 C.ar    1  UNL1        0.0740
     14 C          63.0366   86.0252   16.5243 C.ar    1  UNL1        0.2643
     15 O          62.1378   85.8083   17.7054 O.2     1  UNL1       -0.2668
     16 C          64.0372   83.0681   12.9630 C.3     1  UNL1        0.0942
     17 C          64.0545   83.1960   11.4685 C.3     1  UNL1        0.0476
     18 C          63.2224   84.2475   10.7961 C.ar    1  UNL1       -0.0204
     19 C          62.2374   85.0487   11.5948 C.ar    1  UNL1       -0.0027
     20 C          61.4053   86.1001   10.9224 C.ar    1  UNL1        0.0188
     21 C          61.5582   86.3502    9.4514 C.ar    1  UNL1        0.0828
     22 C          62.5431   85.5490    8.6527 C.ar    1  UNL1        0.0188
     23 C          63.3752   84.4976    9.3250 C.ar    1  UNL1       -0.0027
     24 N          60.7261   87.4017    8.7789 N.ar    1  UNL1       -0.2281
     25 C          60.7385   88.8688    9.0908 C.ar    1  UNL1        0.1020
     26 C          59.7555   89.5444    8.1812 C.ar    1  UNL1        0.0431
     27 C          59.1356   88.4948    7.3071 C.ar    1  UNL1        0.1221
     28 N          59.7354   87.1705    7.6765 N.ar    1  UNL1       -0.1635
@<TRIPOS>BOND
     1     3     4    1
     2     4     5   ar
     3     5     1    1
     4     1    16    1
     5    16    17    1
     6    17    18    1
     7    18    19   ar
     8    19    20   ar
     9    20    21   ar
    10    21    24    1
    11    24    25   ar
    12    25    26   ar
    13    26    27   ar
    14    27    28   ar
    15    21    22   ar
    16    22    23   ar
    17     5     6   ar
    18     6     7   ar
    19     7     8   ar
    20     8     9   ar
    21     9    10    1
    22     9    11   ar
    23    11    12   ar
    24    12    13   ar
    25    13    14   ar
    26    14    15    2
    27    14     4   ar
    28    23    18   ar
    29    13     7   ar
    30    28    24   ar
    31     1     2    1
@<TRIPOS>MOLECULE
*****
 28 31 0 0 0
SMALL
GASTEIGER

@<TRIPOS>ATOM
      1 N          60.4250   90.0646    9.7271 N.pl3   1  UNL1       -0.3039
      2 H          59.7406   90.7374    9.5075 H       1  UNL1        0.1496
      3 C          60.2923   89.2611   12.6144 C.3     1  UNL1        0.1363
      4 N          61.4838   90.0127   12.0991 N.ar    1  UNL1       -0.2669
      5 C          61.5501   90.4145   10.6554 C.ar    1  UNL1        0.2002
      6 N          62.7415   91.1661   10.1401 N.ar    1  UNL1       -0.2150
      7 C          63.8667   91.5159   11.0684 C.ar    1  UNL1        0.0895
      8 C          65.0581   92.2675   10.5530 C.ar    1  UNL1        0.0307
      9 C          66.1831   92.6174   11.4814 C.ar    1  UNL1        0.0592
     10 CL         67.3746   93.3690   10.9660 Cl      1  UNL1       -0.0822
     11 C          66.1168   92.2156   12.9250 C.ar    1  UNL1        0.0116
     12 C          64.9254   91.4640   13.4404 C.ar    1  UNL1        0.0071
     13 C          63.8003   91.1142   12.5121 C.ar    1  UNL1        0.0740
     14 C          62.6088   90.3626   13.0274 C.ar    1  UNL1        0.2643
     15 O          62.5425   89.9608   14.4711 O.2     1  UNL1       -0.2668
     16 C          60.3426   88.6896    9.1333 C.3     1  UNL1        0.0942
     17 C          61.5984   87.9408    8.7985 C.3     1  UNL1        0.0476
     18 C          61.9823   86.7273    9.5924 C.ar    1  UNL1       -0.0204
     19 C          62.7515   85.6169    8.9402 C.ar    1  UNL1       -0.0027
     20 C          63.1354   84.4035    9.7341 C.ar    1  UNL1        0.0188
     21 C          62.7502   84.3005   11.1800 C.ar    1  UNL1        0.0828
     22 C          61.9810   85.4109   11.8322 C.ar    1  UNL1        0.0188
     23 C          61.5971   86.6243   11.0384 C.ar    1  UNL1       -0.0027
     24 N          63.1341   83.0871   11.9739 N.ar    1  UNL1       -0.2281
     25 C          62.4384   81.7585   11.9457 C.ar    1  UNL1        0.1020
     26 C          63.1555   80.8395   12.8897 C.ar    1  UNL1        0.0431
     27 C          64.2945   81.6002   13.5015 C.ar    1  UNL1        0.1221
     28 N          64.2813   82.9892   12.9355 N.ar    1  UNL1       -0.1635
@<TRIPOS>BOND
     1     3     4    1
     2     4     5   ar
     3     5     1    1
     4     1    16    1
     5    16    17    1
     6    17    18    1
     7    18    19   ar
     8    19    20   ar
     9    20    21   ar
    10    21    24    1
    11    24    25   ar
    12    25    26   ar
    13    26    27   ar
    14    27    28   ar
    15    21    22   ar
    16    22    23   ar
    17     5     6   ar
    18     6     7   ar
    19     7     8   ar
    20     8     9   ar
    21     9    10    1
    22     9    11   ar
    23    11    12   ar
    24    12    13   ar
    25    13    14   ar
    26    14    15    2
    27    14     4   ar
    28    23    18   ar
    29    13     7   ar
    30    28    24   ar
    31     1     2    1
