@<TRIPOS>MOLECULE
*****
 40 43 0 0 0
SMALL
GASTEIGER

@<TRIPOS>ATOM
      1 C          62.4135   90.0492   12.3723 C.3     1  UNL1        0.1484
      2 O          61.0537   90.1289   13.0005 O.3     1  UNL1       -0.3810
      3 H          60.9902   90.9376   13.5324 H       1  UNL1        0.2105
      4 C          63.4195   91.1337   12.6214 C.3     1  UNL1        0.1245
      5 C          65.4935   91.8399   14.0177 C.2     1  UNL1        0.2492
      6 O          66.2122   91.9086   15.3325 O.2     1  UNL1       -0.2699
      7 N          64.1382   91.2024   13.9362 N.am    1  UNL1       -0.2735
      8 C          67.2823   96.7959    8.1987 C.3     1  UNL1        0.0950
      9 C          67.1309   95.6744    9.1832 C.ar    1  UNL1        0.2062
     10 N          67.8600   94.3641    9.1460 N.ar    1  UNL1       -0.2121
     11 C          67.4036   93.5462   10.3177 C.ar    1  UNL1        0.1185
     12 C          67.7780   92.1725   10.7896 C.ar    1  UNL1        0.0224
     13 C          67.1414   91.6038   12.0230 C.ar    1  UNL1        0.0063
     14 C          66.1302   92.4087   12.7843 C.ar    1  UNL1        0.0567
     15 C          65.7557   93.7823   12.3124 C.ar    1  UNL1        0.0436
     16 C          66.3924   94.3511   11.0790 C.ar    1  UNL1        0.1645
     17 O          66.2239   95.6664   10.3779 O.2     1  UNL1       -0.4384
     18 C          63.5015   90.6336   15.1696 C.3     1  UNL1        0.0937
     19 C          63.7552   89.2062   15.5544 C.3     1  UNL1        0.0199
     20 C          64.6330   88.3430   14.6974 C.3     1  UNL1        0.0018
     21 C          63.1310   88.6419   16.7962 C.3     1  UNL1        0.0018
     22 C          62.7674   88.8851   11.4950 C.3     1  UNL1        0.1075
     23 N          63.2623   87.6081   12.1069 N.am    1  UNL1       -0.2695
     24 C          62.3178   86.4621   12.3179 C.2     1  UNL1        0.4020
     25 O          60.8783   86.5931   11.9170 O.2     1  UNL1       -0.2264
     26 H          64.2071   87.5221   12.3700 H       1  UNL1        0.1528
     27 O          62.8128   85.1851   12.9297 O.3     1  UNL1       -0.4291
     28 C          62.8729   83.9329   12.1062 C.3     1  UNL1        0.2447
     29 C          62.7078   82.5946   12.7631 C.ar    1  UNL1        0.0714
     30 C          62.4451   82.3540   14.2203 C.ar    1  UNL1        0.1053
     31 N          62.3512   80.8726   14.4361 N.ar    1  UNL1       -0.2350
     32 C          62.5559   80.1975   13.1123 C.ar    1  UNL1        0.1343
     33 S          62.7762   81.2617   12.0783 S.2     1  UNL1       -0.0652
     34 C          62.6263   88.9980   10.0060 C.3     1  UNL1        0.0485
     35 C          61.6496   88.1238    9.2767 C.ar    1  UNL1       -0.0204
     36 C          60.2874   88.6477    8.9306 C.ar    1  UNL1       -0.0042
     37 C          59.3106   87.7735    8.2013 C.ar    1  UNL1       -0.0003
     38 C          59.6961   86.3755    7.8183 C.ar    1  UNL1       -0.0000
     39 C          61.0583   85.8516    8.1644 C.ar    1  UNL1       -0.0003
     40 C          62.0350   86.7257    8.8937 C.ar    1  UNL1       -0.0042
@<TRIPOS>BOND
     1     8     9    1
     2     9    10   ar
     3    10    11   ar
     4    11    12   ar
     5    12    13   ar
     6    13    14   ar
     7    14     5    1
     8     5     6    2
     9     5     7   am
    10     7    18    1
    11    18    19    1
    12    19    20    1
    13    19    21    1
    14     7     4    1
    15     4     1    1
    16     1     2    1
    17     1    22    1
    18    22    34    1
    19    34    35    1
    20    35    36   ar
    21    36    37   ar
    22    37    38   ar
    23    38    39   ar
    24    39    40   ar
    25    22    23    1
    26    23    24   am
    27    24    25    2
    28    24    27    1
    29    27    28    1
    30    28    29    1
    31    29    30   ar
    32    30    31   ar
    33    31    32   ar
    34    32    33   ar
    35    14    15   ar
    36    15    16   ar
    37    16    17   ar
    38    17     9   ar
    39    16    11   ar
    40    40    35   ar
    41    33    29   ar
    42     2     3    1
    43    23    26    1
@<TRIPOS>MOLECULE
*****
 40 43 0 0 0
SMALL
GASTEIGER

@<TRIPOS>ATOM
      1 C          62.3771   89.3960   12.2711 C.3     1  UNL1        0.1484
      2 O          61.5716   90.0220   13.3708 O.3     1  UNL1       -0.3810
      3 H          61.6717   89.5000   14.1822 H       1  UNL1        0.2105
      4 C          63.1686   88.1499   12.5372 C.3     1  UNL1        0.1245
      5 C          64.3368   86.7107   14.3576 C.2     1  UNL1        0.2492
      6 O          65.1927   86.6137   15.5856 O.2     1  UNL1       -0.2699
      7 N          64.0245   88.0529   13.7652 N.am    1  UNL1       -0.2735
      8 C          62.3564   79.1946   13.2576 C.3     1  UNL1        0.0950
      9 C          62.6188   80.6707   13.2073 C.ar    1  UNL1        0.2062
     10 N          62.2612   81.5918   12.0787 N.ar    1  UNL1       -0.2121
     11 C          62.7062   82.9751   12.4506 C.ar    1  UNL1        0.1185
     12 C          62.6171   84.2864   11.7278 C.ar    1  UNL1        0.0224
     13 C          63.1607   85.5316   12.3635 C.ar    1  UNL1        0.0063
     14 C          63.7933   85.4654   13.7219 C.ar    1  UNL1        0.0567
     15 C          63.8824   84.1541   14.4447 C.ar    1  UNL1        0.0436
     16 C          63.3389   82.9090   13.8091 C.ar    1  UNL1        0.1645
     17 O          63.2848   81.4848   14.2767 O.2     1  UNL1       -0.4384
     18 C          64.5680   89.2981   14.4008 C.3     1  UNL1        0.0937
     19 C          63.8976   89.8760   15.6118 C.3     1  UNL1        0.0199
     20 C          64.1214   91.3131   15.9789 C.3     1  UNL1        0.0018
     21 C          63.0033   89.0168   16.4557 C.3     1  UNL1        0.0018
     22 C          62.3912   90.0162   10.9054 C.3     1  UNL1        0.1075
     23 N          63.6167   90.7315   10.4191 N.am    1  UNL1       -0.2695
     24 C          64.3109   91.7197   11.3086 C.2     1  UNL1        0.4020
     25 O          63.7796   91.9928   12.6846 O.2     1  UNL1       -0.2264
     26 H          63.9654   90.5523    9.5160 H       1  UNL1        0.1528
     27 O          65.5365   92.4350   10.8223 O.3     1  UNL1       -0.4291
     28 C          66.1866   93.4783   11.6818 C.3     1  UNL1        0.2447
     29 C          66.7102   93.1122   13.0389 C.ar    1  UNL1        0.0714
     30 C          66.5606   93.9254   14.2905 C.ar    1  UNL1        0.1053
     31 N          67.2332   93.1844   15.4079 N.ar    1  UNL1       -0.2350
     32 C          67.7986   91.9133   14.8469 C.ar    1  UNL1        0.1343
     33 S          67.4753   91.8687   13.3828 S.2     1  UNL1       -0.0652
     34 C          61.1798   89.9211   10.0260 C.3     1  UNL1        0.0485
     35 C          60.8817   88.6454    9.2953 C.ar    1  UNL1       -0.0204
     36 C          59.6414   88.5322    8.4593 C.ar    1  UNL1       -0.0042
     37 C          59.3434   87.2565    7.7286 C.ar    1  UNL1       -0.0003
     38 C          60.2855   86.0941    7.8340 C.ar    1  UNL1       -0.0000
     39 C          61.5257   86.2074    8.6700 C.ar    1  UNL1       -0.0003
     40 C          61.8238   87.4830    9.4007 C.ar    1  UNL1       -0.0042
@<TRIPOS>BOND
     1     8     9    1
     2     9    10   ar
     3    10    11   ar
     4    11    12   ar
     5    12    13   ar
     6    13    14   ar
     7    14     5    1
     8     5     6    2
     9     5     7   am
    10     7    18    1
    11    18    19    1
    12    19    20    1
    13    19    21    1
    14     7     4    1
    15     4     1    1
    16     1     2    1
    17     1    22    1
    18    22    34    1
    19    34    35    1
    20    35    36   ar
    21    36    37   ar
    22    37    38   ar
    23    38    39   ar
    24    39    40   ar
    25    22    23    1
    26    23    24   am
    27    24    25    2
    28    24    27    1
    29    27    28    1
    30    28    29    1
    31    29    30   ar
    32    30    31   ar
    33    31    32   ar
    34    32    33   ar
    35    14    15   ar
    36    15    16   ar
    37    16    17   ar
    38    17     9   ar
    39    16    11   ar
    40    40    35   ar
    41    33    29   ar
    42     2     3    1
    43    23    26    1
@<TRIPOS>MOLECULE
*****
 40 43 0 0 0
SMALL
GASTEIGER

@<TRIPOS>ATOM
      1 C          62.3714   89.3964   12.3130 C.3     1  UNL1        0.1484
      2 O          61.6278   90.0661   13.4304 O.3     1  UNL1       -0.3810
      3 H          61.7607   89.5674   14.2517 H       1  UNL1        0.2105
      4 C          63.1595   88.1481   12.5788 C.3     1  UNL1        0.1245
      5 C          64.3162   86.6936   14.3944 C.2     1  UNL1        0.2492
      6 O          65.1570   86.5867   15.6320 O.2     1  UNL1       -0.2699
      7 N          64.0003   88.0412   13.8164 N.am    1  UNL1       -0.2735
      8 C          62.4079   79.1783   13.1687 C.3     1  UNL1        0.0950
      9 C          62.6600   80.6567   13.1413 C.ar    1  UNL1        0.2062
     10 N          62.3122   81.5898   12.0195 N.ar    1  UNL1       -0.2121
     11 C          62.7415   82.9714   12.4157 C.ar    1  UNL1        0.1185
     12 C          62.6532   84.2913   11.7086 C.ar    1  UNL1        0.0224
     13 C          63.1781   85.5320   12.3681 C.ar    1  UNL1        0.0063
     14 C          63.7913   85.4528   13.7348 C.ar    1  UNL1        0.0567
     15 C          63.8795   84.1329   14.4419 C.ar    1  UNL1        0.0436
     16 C          63.3546   82.8922   13.7824 C.ar    1  UNL1        0.1645
     17 O          63.3042   81.4617   14.2308 O.2     1  UNL1       -0.4384
     18 C          64.5252   89.2820   14.4759 C.3     1  UNL1        0.0937
     19 C          63.8469   89.8258   15.6983 C.3     1  UNL1        0.0199
     20 C          63.0106   88.9233   16.5561 C.3     1  UNL1        0.0018
     21 C          64.0049   91.2723   16.0627 C.3     1  UNL1        0.0018
     22 C          62.3268   89.9750   10.9298 C.3     1  UNL1        0.1075
     23 N          63.5108   90.7218   10.3907 N.am    1  UNL1       -0.2695
     24 C          64.2788   91.6532   11.2809 C.2     1  UNL1        0.4020
     25 O          63.8629   91.8380   12.7102 O.2     1  UNL1       -0.2264
     26 H          63.7838   90.6006    9.4526 H       1  UNL1        0.1528
     27 O          65.4628   92.4000   10.7418 O.3     1  UNL1       -0.4291
     28 C          65.7555   93.7901   11.2234 C.3     1  UNL1        0.2447
     29 C          66.4214   94.7757   10.3096 C.ar    1  UNL1        0.0714
     30 C          67.1739   94.4456    9.0546 C.ar    1  UNL1        0.1053
     31 N          67.6693   95.7304    8.4596 N.ar    1  UNL1       -0.2350
     32 C          67.2230   96.8546    9.3468 C.ar    1  UNL1        0.1343
     33 S          66.4517   96.2645   10.4902 S.2     1  UNL1       -0.0652
     34 C          61.0983   89.8068   10.0857 C.3     1  UNL1        0.0485
     35 C          60.8738   88.5281    9.3345 C.ar    1  UNL1       -0.0204
     36 C          59.6083   88.3289    8.5543 C.ar    1  UNL1       -0.0042
     37 C          59.3837   87.0501    7.8030 C.ar    1  UNL1       -0.0003
     38 C          60.4247   85.9705    7.8320 C.ar    1  UNL1       -0.0000
     39 C          61.6902   86.1697    8.6123 C.ar    1  UNL1       -0.0003
     40 C          61.9147   87.4485    9.3635 C.ar    1  UNL1       -0.0042
@<TRIPOS>BOND
     1     8     9    1
     2     9    10   ar
     3    10    11   ar
     4    11    12   ar
     5    12    13   ar
     6    13    14   ar
     7    14     5    1
     8     5     6    2
     9     5     7   am
    10     7    18    1
    11    18    19    1
    12    19    20    1
    13    19    21    1
    14     7     4    1
    15     4     1    1
    16     1     2    1
    17     1    22    1
    18    22    34    1
    19    34    35    1
    20    35    36   ar
    21    36    37   ar
    22    37    38   ar
    23    38    39   ar
    24    39    40   ar
    25    22    23    1
    26    23    24   am
    27    24    25    2
    28    24    27    1
    29    27    28    1
    30    28    29    1
    31    29    30   ar
    32    30    31   ar
    33    31    32   ar
    34    32    33   ar
    35    14    15   ar
    36    15    16   ar
    37    16    17   ar
    38    17     9   ar
    39    16    11   ar
    40    40    35   ar
    41    33    29   ar
    42     2     3    1
    43    23    26    1
@<TRIPOS>MOLECULE
*****
 40 43 0 0 0
SMALL
GASTEIGER

@<TRIPOS>ATOM
      1 C          62.3747   85.6178   11.5227 C.3     1  UNL1        0.1484
      2 O          63.1048   84.9706   10.3835 O.3     1  UNL1       -0.3810
      3 H          63.3270   84.0564   10.6196 H       1  UNL1        0.2105
      4 C          62.1017   84.8411   12.7767 C.3     1  UNL1        0.1245
      5 C          63.9272   84.2189   14.5175 C.2     1  UNL1        0.2492
      6 O          64.9495   83.2531   15.0389 O.2     1  UNL1       -0.2699
      7 N          63.1241   83.8753   13.2981 N.am    1  UNL1       -0.2735
      8 C          64.1453   91.8981   16.1315 C.3     1  UNL1        0.0950
      9 C          63.9525   90.4120   16.0675 C.ar    1  UNL1        0.2062
     10 N          63.2140   89.5747   17.0693 N.ar    1  UNL1       -0.2121
     11 C          63.2693   88.1474   16.6113 C.ar    1  UNL1        0.1185
     12 C          62.7160   86.8828   17.1983 C.ar    1  UNL1        0.0224
     13 C          62.9353   85.5734   16.5004 C.ar    1  UNL1        0.0063
     14 C          63.7079   85.5285   15.2154 C.ar    1  UNL1        0.0567
     15 C          64.2612   86.7931   14.6285 C.ar    1  UNL1        0.0436
     16 C          64.0420   88.1025   15.3264 C.ar    1  UNL1        0.1645
     17 O          64.4641   89.5021   14.9903 O.2     1  UNL1       -0.4384
     18 C          63.3433   82.5657   12.6002 C.3     1  UNL1        0.0937
     19 C          62.5578   81.3558   13.0116 C.3     1  UNL1        0.0199
     20 C          61.6153   81.4338   14.1759 C.3     1  UNL1        0.0018
     21 C          62.7149   80.0680   12.2586 C.3     1  UNL1        0.0018
     22 C          61.9174   87.0419   11.4082 C.3     1  UNL1        0.1075
     23 N          62.8905   88.1620   11.6287 N.am    1  UNL1       -0.2695
     24 C          62.4291   89.4434   12.2574 C.2     1  UNL1        0.4020
     25 O          60.9947   89.6046   12.6655 O.2     1  UNL1       -0.2264
     26 H          63.8319   88.0562   11.3609 H       1  UNL1        0.1528
     27 O          63.4021   90.5635   12.4779 O.3     1  UNL1       -0.4291
     28 C          63.9351   91.3353   11.3074 C.3     1  UNL1        0.2447
     29 C          65.0024   92.3689   11.5139 C.ar    1  UNL1        0.0714
     30 C          65.7019   92.6679   12.8068 C.ar    1  UNL1        0.1053
     31 N          66.6894   93.7687   12.5557 N.ar    1  UNL1       -0.2350
     32 C          66.6003   94.1501   11.1077 C.ar    1  UNL1        0.1343
     33 S          65.5576   93.2849   10.4638 S.2     1  UNL1       -0.0652
     34 C          60.4873   87.3457   11.0731 C.3     1  UNL1        0.0485
     35 C          60.1064   87.7053    9.6675 C.ar    1  UNL1       -0.0204
     36 C          60.1685   89.1343    9.2158 C.ar    1  UNL1       -0.0042
     37 C          59.7876   89.4939    7.8103 C.ar    1  UNL1       -0.0003
     38 C          59.3447   88.4244    6.8563 C.ar    1  UNL1       -0.0000
     39 C          59.2826   86.9954    7.3080 C.ar    1  UNL1       -0.0003
     40 C          59.6635   86.6359    8.7135 C.ar    1  UNL1       -0.0042
@<TRIPOS>BOND
     1     8     9    1
     2     9    10   ar
     3    10    11   ar
     4    11    12   ar
     5    12    13   ar
     6    13    14   ar
     7    14     5    1
     8     5     6    2
     9     5     7   am
    10     7    18    1
    11    18    19    1
    12    19    20    1
    13    19    21    1
    14     7     4    1
    15     4     1    1
    16     1     2    1
    17     1    22    1
    18    22    34    1
    19    34    35    1
    20    35    36   ar
    21    36    37   ar
    22    37    38   ar
    23    38    39   ar
    24    39    40   ar
    25    22    23    1
    26    23    24   am
    27    24    25    2
    28    24    27    1
    29    27    28    1
    30    28    29    1
    31    29    30   ar
    32    30    31   ar
    33    31    32   ar
    34    32    33   ar
    35    14    15   ar
    36    15    16   ar
    37    16    17   ar
    38    17     9   ar
    39    16    11   ar
    40    40    35   ar
    41    33    29   ar
    42     2     3    1
    43    23    26    1
@<TRIPOS>MOLECULE
*****
 40 43 0 0 0
SMALL
GASTEIGER

@<TRIPOS>ATOM
      1 C          61.9568   89.3172   11.9318 C.3     1  UNL1        0.1484
      2 O          60.9393   90.0478   12.7570 O.3     1  UNL1       -0.3810
      3 H          61.3918   90.6328   13.3846 H       1  UNL1        0.2105
      4 C          63.4198   89.5592   12.1581 C.3     1  UNL1        0.1245
      5 C          64.0906   90.4069   14.5206 C.2     1  UNL1        0.2492
      6 O          64.5360   91.5186   15.4238 O.2     1  UNL1       -0.2699
      7 N          63.8652   90.6708   13.0613 N.am    1  UNL1       -0.2735
      8 C          64.0804   82.5856   15.1917 C.3     1  UNL1        0.0950
      9 C          63.9542   84.0747   15.3212 C.ar    1  UNL1        0.2062
     10 N          63.3473   84.8107   16.4788 N.ar    1  UNL1       -0.2121
     11 C          63.4307   86.2801   16.1890 C.ar    1  UNL1        0.1185
     12 C          62.9922   87.4835   16.9695 C.ar    1  UNL1        0.0224
     13 C          63.2121   88.8591   16.4134 C.ar    1  UNL1        0.0063
     14 C          63.8706   89.0312   15.0767 C.ar    1  UNL1        0.0567
     15 C          64.3092   87.8278   14.2961 C.ar    1  UNL1        0.0436
     16 C          64.0892   86.4522   14.8523 C.ar    1  UNL1        0.1645
     17 O          64.4127   85.0892   14.3160 O.2     1  UNL1       -0.4384
     18 C          64.0851   92.0465   12.5052 C.3     1  UNL1        0.0937
     19 C          65.4289   92.4287   11.9590 C.3     1  UNL1        0.0199
     20 C          65.5667   92.8330   10.5211 C.3     1  UNL1        0.0018
     21 C          66.6348   92.4065   12.8508 C.3     1  UNL1        0.0018
     22 C          61.5113   88.3445   10.8804 C.3     1  UNL1        0.1075
     23 N          61.4040   88.7833    9.4500 N.am    1  UNL1       -0.2695
     24 C          60.2301   88.3553    8.6202 C.2     1  UNL1        0.4020
     25 O          59.1634   87.4884    9.2208 O.2     1  UNL1       -0.2264
     26 H          62.1041   89.3523    9.0558 H       1  UNL1        0.1528
     27 O          60.1228   88.7941    7.1898 O.3     1  UNL1       -0.4291
     28 C          58.8435   89.3907    6.6823 C.3     1  UNL1        0.2447
     29 C          58.8822   90.5225    5.6987 C.ar    1  UNL1        0.0714
     30 C          57.6963   91.2793    5.1782 C.ar    1  UNL1        0.1053
     31 N          58.1947   92.3208    4.2207 N.ar    1  UNL1       -0.2350
     32 C          59.6888   92.2077    4.1493 C.ar    1  UNL1        0.1343
     33 S          60.1137   91.0962    5.0628 S.2     1  UNL1       -0.0652
     34 C          61.1731   86.9331   11.2593 C.3     1  UNL1        0.0485
     35 C          62.0479   85.8037   10.8020 C.ar    1  UNL1       -0.0204
     36 C          62.4618   84.7360   11.7708 C.ar    1  UNL1       -0.0042
     37 C          63.3366   83.6065   11.3135 C.ar    1  UNL1       -0.0003
     38 C          63.7975   83.5448    9.8875 C.ar    1  UNL1       -0.0000
     39 C          63.3836   84.6125    8.9187 C.ar    1  UNL1       -0.0003
     40 C          62.5088   85.7420    9.3759 C.ar    1  UNL1       -0.0042
@<TRIPOS>BOND
     1     8     9    1
     2     9    10   ar
     3    10    11   ar
     4    11    12   ar
     5    12    13   ar
     6    13    14   ar
     7    14     5    1
     8     5     6    2
     9     5     7   am
    10     7    18    1
    11    18    19    1
    12    19    20    1
    13    19    21    1
    14     7     4    1
    15     4     1    1
    16     1     2    1
    17     1    22    1
    18    22    34    1
    19    34    35    1
    20    35    36   ar
    21    36    37   ar
    22    37    38   ar
    23    38    39   ar
    24    39    40   ar
    25    22    23    1
    26    23    24   am
    27    24    25    2
    28    24    27    1
    29    27    28    1
    30    28    29    1
    31    29    30   ar
    32    30    31   ar
    33    31    32   ar
    34    32    33   ar
    35    14    15   ar
    36    15    16   ar
    37    16    17   ar
    38    17     9   ar
    39    16    11   ar
    40    40    35   ar
    41    33    29   ar
    42     2     3    1
    43    23    26    1
@<TRIPOS>MOLECULE
*****
 40 43 0 0 0
SMALL
GASTEIGER

@<TRIPOS>ATOM
      1 C          61.8748   87.3733   11.8048 C.3     1  UNL1        0.1484
      2 O          60.3822   87.5218   11.8050 O.3     1  UNL1       -0.3810
      3 H          60.1508   88.4626   11.8522 H       1  UNL1        0.2105
      4 C          62.7495   88.5901   11.8718 C.3     1  UNL1        0.1245
      5 C          63.3865   90.9339   10.9495 C.2     1  UNL1        0.2492
      6 O          63.3322   91.9578    9.8546 O.2     1  UNL1       -0.2699
      7 N          62.6952   89.6140   10.7769 N.am    1  UNL1       -0.2735
      8 C          68.7259   93.8444   15.9136 C.3     1  UNL1        0.0950
      9 C          67.5957   93.1635   15.2002 C.ar    1  UNL1        0.2062
     10 N          66.5539   92.2885   15.8318 N.ar    1  UNL1       -0.2121
     11 C          65.6231   91.8223   14.7518 C.ar    1  UNL1        0.1185
     12 C          64.4111   90.9392   14.7835 C.ar    1  UNL1        0.0224
     13 C          63.6656   90.6431   13.5161 C.ar    1  UNL1        0.0063
     14 C          64.1321   91.2301   12.2169 C.ar    1  UNL1        0.0567
     15 C          65.3441   92.1132   12.1852 C.ar    1  UNL1        0.0436
     16 C          66.0896   92.4093   13.4527 C.ar    1  UNL1        0.1645
     17 O          67.3087   93.2382   13.7298 O.2     1  UNL1       -0.4384
     18 C          61.9496   89.3178    9.5094 C.3     1  UNL1        0.0937
     19 C          60.5047   89.6999    9.3825 C.3     1  UNL1        0.0199
     20 C          59.7456   89.3593    8.1344 C.3     1  UNL1        0.0018
     21 C          59.8188   90.4226   10.5039 C.3     1  UNL1        0.0018
     22 C          62.4927   86.0082   11.7377 C.3     1  UNL1        0.1075
     23 N          62.4304   85.0974   12.9280 N.am    1  UNL1       -0.2695
     24 C          63.2724   85.3831   14.1360 C.2     1  UNL1        0.4020
     25 O          64.1768   86.5797   14.1538 O.2     1  UNL1       -0.2264
     26 H          61.8368   84.3120   12.9163 H       1  UNL1        0.1528
     27 O          63.2100   84.4723   15.3262 O.3     1  UNL1       -0.4291
     28 C          63.7789   83.0870   15.2412 C.3     1  UNL1        0.2447
     29 C          63.2320   82.1118   14.2413 C.ar    1  UNL1        0.0714
     30 C          61.9730   81.3098   14.3894 C.ar    1  UNL1        0.1053
     31 N          61.8109   80.4696   13.1574 N.ar    1  UNL1       -0.2350
     32 C          62.9697   80.7523   12.2478 C.ar    1  UNL1        0.1343
     33 S          63.8480   81.7673   12.9177 S.2     1  UNL1       -0.0652
     34 C          63.1730   85.5538   10.4805 C.3     1  UNL1        0.0485
     35 C          62.3992   85.4669    9.1984 C.ar    1  UNL1       -0.0204
     36 C          60.9863   85.9670    9.1398 C.ar    1  UNL1       -0.0042
     37 C          60.2125   85.8801    7.8577 C.ar    1  UNL1       -0.0003
     38 C          60.8516   85.2930    6.6343 C.ar    1  UNL1       -0.0000
     39 C          62.2645   84.7928    6.6929 C.ar    1  UNL1       -0.0003
     40 C          63.0383   84.8797    7.9750 C.ar    1  UNL1       -0.0042
@<TRIPOS>BOND
     1     8     9    1
     2     9    10   ar
     3    10    11   ar
     4    11    12   ar
     5    12    13   ar
     6    13    14   ar
     7    14     5    1
     8     5     6    2
     9     5     7   am
    10     7    18    1
    11    18    19    1
    12    19    20    1
    13    19    21    1
    14     7     4    1
    15     4     1    1
    16     1     2    1
    17     1    22    1
    18    22    34    1
    19    34    35    1
    20    35    36   ar
    21    36    37   ar
    22    37    38   ar
    23    38    39   ar
    24    39    40   ar
    25    22    23    1
    26    23    24   am
    27    24    25    2
    28    24    27    1
    29    27    28    1
    30    28    29    1
    31    29    30   ar
    32    30    31   ar
    33    31    32   ar
    34    32    33   ar
    35    14    15   ar
    36    15    16   ar
    37    16    17   ar
    38    17     9   ar
    39    16    11   ar
    40    40    35   ar
    41    33    29   ar
    42     2     3    1
    43    23    26    1
@<TRIPOS>MOLECULE
*****
 40 43 0 0 0
SMALL
GASTEIGER

@<TRIPOS>ATOM
      1 C          62.5554   86.2336    9.6354 C.3     1  UNL1        0.1484
      2 O          62.8444   85.7798    8.2353 O.3     1  UNL1       -0.3810
      3 H          62.9797   86.5534    7.6660 H       1  UNL1        0.2105
      4 C          62.5145   87.6985    9.9556 C.3     1  UNL1        0.1245
      5 C          61.1335   89.7855   10.6536 C.2     1  UNL1        0.2492
      6 O          59.8150   90.4913   10.7700 O.2     1  UNL1       -0.2699
      7 N          61.1961   88.4043   10.0720 N.am    1  UNL1       -0.2735
      8 C          67.0797   92.0461   15.2531 C.3     1  UNL1        0.0950
      9 C          66.0710   91.7789   14.1755 C.ar    1  UNL1        0.2062
     10 N          66.0967   92.3406   12.7849 N.ar    1  UNL1       -0.2121
     11 C          64.9011   91.8121   12.0493 C.ar    1  UNL1        0.1185
     12 C          64.4099   92.0249   10.6481 C.ar    1  UNL1        0.0224
     13 C          63.1541   91.3494   10.1829 C.ar    1  UNL1        0.0063
     14 C          62.3894   90.4610   11.1189 C.ar    1  UNL1        0.0567
     15 C          62.8806   90.2482   12.5201 C.ar    1  UNL1        0.0436
     16 C          64.1365   90.9237   12.9852 C.ar    1  UNL1        0.1645
     17 O          64.8595   90.9032   14.2993 O.2     1  UNL1       -0.4384
     18 C          59.9401   87.7288    9.6068 C.3     1  UNL1        0.0937
     19 C          59.6241   87.6597    8.1421 C.3     1  UNL1        0.0199
     20 C          59.4943   88.9221    7.3425 C.3     1  UNL1        0.0018
     21 C          59.4380   86.3281    7.4769 C.3     1  UNL1        0.0018
     22 C          62.3072   85.2227   10.7154 C.3     1  UNL1        0.1075
     23 N          62.3436   83.7578   10.3942 N.am    1  UNL1       -0.2695
     24 C          63.6543   83.0291   10.3640 C.2     1  UNL1        0.4020
     25 O          64.9286   83.7650   10.6549 O.2     1  UNL1       -0.2264
     26 H          61.5073   83.2748   10.2033 H       1  UNL1        0.1528
     27 O          63.6908   81.5642   10.0428 O.3     1  UNL1       -0.4291
     28 C          63.0960   80.5721   10.9976 C.3     1  UNL1        0.2447
     29 C          62.9028   80.9409   12.4387 C.ar    1  UNL1        0.0714
     30 C          63.9831   81.0478   13.4739 C.ar    1  UNL1        0.1053
     31 N          63.3434   81.4406   14.7726 N.ar    1  UNL1       -0.2350
     32 C          61.8678   81.5763   14.5401 C.ar    1  UNL1        0.1343
     33 S          61.5955   81.2675   13.0976 S.2     1  UNL1       -0.0652
     34 C          62.0226   85.6764   12.1164 C.3     1  UNL1        0.0485
     35 C          63.1422   85.7997   13.1070 C.ar    1  UNL1       -0.0204
     36 C          63.5518   87.1515   13.6116 C.ar    1  UNL1       -0.0042
     37 C          64.6714   87.2747   14.6021 C.ar    1  UNL1       -0.0003
     38 C          65.3816   86.0461   15.0880 C.ar    1  UNL1       -0.0000
     39 C          64.9720   84.6943   14.5834 C.ar    1  UNL1       -0.0003
     40 C          63.8524   84.5710   13.5928 C.ar    1  UNL1       -0.0042
@<TRIPOS>BOND
     1     8     9    1
     2     9    10   ar
     3    10    11   ar
     4    11    12   ar
     5    12    13   ar
     6    13    14   ar
     7    14     5    1
     8     5     6    2
     9     5     7   am
    10     7    18    1
    11    18    19    1
    12    19    20    1
    13    19    21    1
    14     7     4    1
    15     4     1    1
    16     1     2    1
    17     1    22    1
    18    22    34    1
    19    34    35    1
    20    35    36   ar
    21    36    37   ar
    22    37    38   ar
    23    38    39   ar
    24    39    40   ar
    25    22    23    1
    26    23    24   am
    27    24    25    2
    28    24    27    1
    29    27    28    1
    30    28    29    1
    31    29    30   ar
    32    30    31   ar
    33    31    32   ar
    34    32    33   ar
    35    14    15   ar
    36    15    16   ar
    37    16    17   ar
    38    17     9   ar
    39    16    11   ar
    40    40    35   ar
    41    33    29   ar
    42     2     3    1
    43    23    26    1
@<TRIPOS>MOLECULE
*****
 40 43 0 0 0
SMALL
GASTEIGER

@<TRIPOS>ATOM
      1 C          62.5088   86.4440   11.9107 C.3     1  UNL1        0.1484
      2 O          61.2675   85.6160   11.7580 O.3     1  UNL1       -0.3810
      3 H          60.6683   86.0449   11.1271 H       1  UNL1        0.2105
      4 C          62.6585   87.7208   11.1378 C.3     1  UNL1        0.1245
      5 C          61.4458   90.0027   10.8691 C.2     1  UNL1        0.2492
      6 O          60.2301   90.7896   10.4780 O.2     1  UNL1       -0.2699
      7 N          61.4429   88.5077   10.7467 N.am    1  UNL1       -0.2735
      8 C          66.9137   92.7536   15.7841 C.3     1  UNL1        0.0950
      9 C          66.0236   92.3616   14.6421 C.ar    1  UNL1        0.2062
     10 N          66.2248   92.7277   13.2015 N.ar    1  UNL1       -0.2121
     11 C          65.1015   92.1271   12.4093 C.ar    1  UNL1        0.1185
     12 C          64.7784   92.1563   10.9448 C.ar    1  UNL1        0.0224
     13 C          63.5598   91.4482   10.4315 C.ar    1  UNL1        0.0063
     14 C          62.6644   90.7109   11.3825 C.ar    1  UNL1        0.0567
     15 C          62.9875   90.6816   12.8470 C.ar    1  UNL1        0.0436
     16 C          64.2061   91.3897   13.3604 C.ar    1  UNL1        0.1645
     17 O          64.7760   91.5347   14.7403 O.2     1  UNL1       -0.4384
     18 C          60.2242   87.7996   10.2332 C.3     1  UNL1        0.0937
     19 C          60.1188   87.4468    8.7791 C.3     1  UNL1        0.0199
     20 C          59.4207   88.3757    7.8307 C.3     1  UNL1        0.0018
     21 C          60.7114   86.1649    8.2735 C.3     1  UNL1        0.0018
     22 C          63.6005   85.9953   12.8365 C.3     1  UNL1        0.1075
     23 N          64.0471   84.5633   12.8310 N.am    1  UNL1       -0.2695
     24 C          64.0848   83.7944   11.5436 C.2     1  UNL1        0.4020
     25 O          63.6760   84.4574   10.2617 O.2     1  UNL1       -0.2264
     26 H          64.3154   84.1281   13.6723 H       1  UNL1        0.1528
     27 O          64.5314   82.3624   11.5381 O.3     1  UNL1       -0.4291
     28 C          64.4285   81.5399   12.7883 C.3     1  UNL1        0.2447
     29 C          63.0811   81.1809   13.3410 C.ar    1  UNL1        0.0714
     30 C          62.2166   82.0590   14.1965 C.ar    1  UNL1        0.1053
     31 N          60.9628   81.3017   14.5196 N.ar    1  UNL1       -0.2350
     32 C          61.0523   79.9555   13.8638 C.ar    1  UNL1        0.1343
     33 S          62.3616   79.8809   13.1354 S.2     1  UNL1       -0.0652
     34 C          64.2455   86.9786   13.7676 C.3     1  UNL1        0.0485
     35 C          63.7618   87.1003   15.1823 C.ar    1  UNL1       -0.0204
     36 C          63.5344   88.4557   15.7831 C.ar    1  UNL1       -0.0042
     37 C          63.0507   88.5775   17.1977 C.ar    1  UNL1       -0.0003
     38 C          62.7945   87.3438   18.0116 C.ar    1  UNL1       -0.0000
     39 C          63.0220   85.9884   17.4108 C.ar    1  UNL1       -0.0003
     40 C          63.5057   85.8667   15.9961 C.ar    1  UNL1       -0.0042
@<TRIPOS>BOND
     1     8     9    1
     2     9    10   ar
     3    10    11   ar
     4    11    12   ar
     5    12    13   ar
     6    13    14   ar
     7    14     5    1
     8     5     6    2
     9     5     7   am
    10     7    18    1
    11    18    19    1
    12    19    20    1
    13    19    21    1
    14     7     4    1
    15     4     1    1
    16     1     2    1
    17     1    22    1
    18    22    34    1
    19    34    35    1
    20    35    36   ar
    21    36    37   ar
    22    37    38   ar
    23    38    39   ar
    24    39    40   ar
    25    22    23    1
    26    23    24   am
    27    24    25    2
    28    24    27    1
    29    27    28    1
    30    28    29    1
    31    29    30   ar
    32    30    31   ar
    33    31    32   ar
    34    32    33   ar
    35    14    15   ar
    36    15    16   ar
    37    16    17   ar
    38    17     9   ar
    39    16    11   ar
    40    40    35   ar
    41    33    29   ar
    42     2     3    1
    43    23    26    1
@<TRIPOS>MOLECULE
*****
 40 43 0 0 0
SMALL
GASTEIGER

@<TRIPOS>ATOM
      1 C          62.6350   86.0733   10.4651 C.3     1  UNL1        0.1484
      2 O          62.7886   85.8912    8.9842 O.3     1  UNL1       -0.3810
      3 H          62.6845   86.7475    8.5406 H       1  UNL1        0.2105
      4 C          62.3635   87.4366   11.0290 C.3     1  UNL1        0.1245
      5 C          61.1835   89.7184   10.6404 C.2     1  UNL1        0.2492
      6 O          59.9955   90.5026   10.1675 O.2     1  UNL1       -0.2699
      7 N          61.1755   88.2208   10.5561 N.am    1  UNL1       -0.2735
      8 C          66.4656   92.4810   15.7482 C.3     1  UNL1        0.0950
      9 C          65.6168   92.0887   14.5753 C.ar    1  UNL1        0.2062
     10 N          65.8638   92.4628   13.1439 N.ar    1  UNL1       -0.2121
     11 C          64.7717   91.8587   12.3118 C.ar    1  UNL1        0.1185
     12 C          64.4976   91.8927   10.8374 C.ar    1  UNL1        0.0224
     13 C          63.3016   91.1793   10.2803 C.ar    1  UNL1        0.0063
     14 C          62.3796   90.4318   11.1975 C.ar    1  UNL1        0.0567
     15 C          62.6536   90.3979   12.6719 C.ar    1  UNL1        0.0436
     16 C          63.8497   91.1113   13.2290 C.ar    1  UNL1        0.1645
     17 O          64.3720   91.2535   14.6279 O.2     1  UNL1       -0.4384
     18 C          59.9794   87.5073    9.9989 C.3     1  UNL1        0.0937
     19 C          59.7939   87.4010    8.5142 C.3     1  UNL1        0.0199
     20 C          59.4794   88.6261    7.7080 C.3     1  UNL1        0.0018
     21 C          59.9228   86.0694    7.8357 C.3     1  UNL1        0.0018
     22 C          62.7530   84.8923   11.3823 C.3     1  UNL1        0.1075
     23 N          63.3038   85.0695   12.7662 N.am    1  UNL1       -0.2695
     24 C          64.5427   84.3323   13.1805 C.2     1  UNL1        0.4020
     25 O          65.2309   83.4179   12.2108 O.2     1  UNL1       -0.2264
     26 H          62.8521   85.6696   13.4027 H       1  UNL1        0.1528
     27 O          65.0935   84.5095   14.5644 O.3     1  UNL1       -0.4291
     28 C          64.1607   84.6551   15.7299 C.3     1  UNL1        0.2447
     29 C          63.7047   86.0179   16.1599 C.ar    1  UNL1        0.0714
     30 C          64.0085   87.3104   15.4616 C.ar    1  UNL1        0.1053
     31 N          63.3564   88.4188   16.2337 N.ar    1  UNL1       -0.2350
     32 C          62.6496   87.8115   17.4092 C.ar    1  UNL1        0.1343
     33 S          62.8648   86.3277   17.3635 S.2     1  UNL1       -0.0652
     34 C          62.3202   83.5341   10.9155 C.3     1  UNL1        0.0485
     35 C          62.3091   82.3800   11.8737 C.ar    1  UNL1       -0.0204
     36 C          62.7837   81.0292   11.4264 C.ar    1  UNL1       -0.0042
     37 C          62.7726   79.8752   12.3846 C.ar    1  UNL1       -0.0003
     38 C          62.2869   80.0720   13.7900 C.ar    1  UNL1       -0.0000
     39 C          61.8123   81.4227   14.2373 C.ar    1  UNL1       -0.0003
     40 C          61.8234   82.5768   13.2791 C.ar    1  UNL1       -0.0042
@<TRIPOS>BOND
     1     8     9    1
     2     9    10   ar
     3    10    11   ar
     4    11    12   ar
     5    12    13   ar
     6    13    14   ar
     7    14     5    1
     8     5     6    2
     9     5     7   am
    10     7    18    1
    11    18    19    1
    12    19    20    1
    13    19    21    1
    14     7     4    1
    15     4     1    1
    16     1     2    1
    17     1    22    1
    18    22    34    1
    19    34    35    1
    20    35    36   ar
    21    36    37   ar
    22    37    38   ar
    23    38    39   ar
    24    39    40   ar
    25    22    23    1
    26    23    24   am
    27    24    25    2
    28    24    27    1
    29    27    28    1
    30    28    29    1
    31    29    30   ar
    32    30    31   ar
    33    31    32   ar
    34    32    33   ar
    35    14    15   ar
    36    15    16   ar
    37    16    17   ar
    38    17     9   ar
    39    16    11   ar
    40    40    35   ar
    41    33    29   ar
    42     2     3    1
    43    23    26    1
