@<TRIPOS>MOLECULE
*****
 12 13 0 0 0
SMALL
GASTEIGER

@<TRIPOS>ATOM
      1 C          68.3957   92.6889    9.0110 C.ar    1  UNL1        0.0207
      2 C          68.0296   94.0808    8.5882 C.ar    1  UNL1        0.0989
      3 N          67.0846   94.8938    9.4224 N.ar    1  UNL1       -0.2423
      4 C          66.5056   94.3151   10.6793 C.ar    1  UNL1        0.0989
      5 C          66.8717   92.9232   11.1020 C.ar    1  UNL1        0.0207
      6 C          67.8168   92.1102   10.2679 C.ar    1  UNL1        0.0032
      7 C          66.2928   92.3444   12.3590 C.ar    1  UNL1        0.0207
      8 C          67.1826   92.0586   13.5322 C.ar    1  UNL1        0.0032
      9 C          66.6036   91.4797   14.7892 C.ar    1  UNL1        0.0207
     10 C          65.1349   91.1868   14.8728 C.ar    1  UNL1        0.0989
     11 N          64.2451   91.4726   13.6994 N.ar    1  UNL1       -0.2423
     12 C          64.8241   92.0514   12.4426 C.ar    1  UNL1        0.0989
@<TRIPOS>BOND
     1     1     2   ar
     2     2     3   ar
     3     3     4   ar
     4     4     5   ar
     5     5     7    1
     6     7     8   ar
     7     8     9   ar
     8     9    10   ar
     9    10    11   ar
    10    11    12   ar
    11     5     6   ar
    12     6     1   ar
    13    12     7   ar
@<TRIPOS>MOLECULE
*****
 12 13 0 0 0
SMALL
GASTEIGER

@<TRIPOS>ATOM
      1 C          66.8701   91.5405   14.7250 C.ar    1  UNL1        0.0207
      2 C          65.3964   91.3342   14.9130 C.ar    1  UNL1        0.0989
      3 N          64.4475   91.6371   13.7914 N.ar    1  UNL1       -0.2423
      4 C          64.9725   92.1463   12.4818 C.ar    1  UNL1        0.0989
      5 C          66.4462   92.3526   12.2938 C.ar    1  UNL1        0.0207
      6 C          67.3951   92.0497   13.4154 C.ar    1  UNL1        0.0032
      7 C          66.9712   92.8619   10.9842 C.ar    1  UNL1        0.0207
      8 C          68.0000   92.0723   10.2305 C.ar    1  UNL1        0.0032
      9 C          68.5250   92.5816    8.9209 C.ar    1  UNL1        0.0207
     10 C          68.0212   93.8805    8.3650 C.ar    1  UNL1        0.0989
     11 N          66.9924   94.6701    9.1187 N.ar    1  UNL1       -0.2423
     12 C          66.4674   94.1608   10.4283 C.ar    1  UNL1        0.0989
@<TRIPOS>BOND
     1     1     2   ar
     2     2     3   ar
     3     3     4   ar
     4     4     5   ar
     5     5     7    1
     6     7     8   ar
     7     8     9   ar
     8     9    10   ar
     9    10    11   ar
    10    11    12   ar
    11     5     6   ar
    12     6     1   ar
    13    12     7   ar
@<TRIPOS>MOLECULE
*****
 12 13 0 0 0
SMALL
GASTEIGER

@<TRIPOS>ATOM
      1 C          62.9405   80.7215   12.5925 C.ar    1  UNL1        0.0207
      2 C          63.3940   81.0205   13.9907 C.ar    1  UNL1        0.0989
      3 N          63.6248   82.4401   14.4168 N.ar    1  UNL1       -0.2423
      4 C          63.4022   83.5606   13.4447 C.ar    1  UNL1        0.0989
      5 C          62.9487   83.2615   12.0466 C.ar    1  UNL1        0.0207
      6 C          62.7178   81.8419   11.6205 C.ar    1  UNL1        0.0032
      7 C          62.7260   84.3820   11.0744 C.ar    1  UNL1        0.0207
      8 C          63.2570   84.2778    9.6755 C.ar    1  UNL1        0.0032
      9 C          63.0344   85.3983    8.7034 C.ar    1  UNL1        0.0207
     10 C          62.2807   86.6230    9.1303 C.ar    1  UNL1        0.0989
     11 N          61.7497   86.7271   10.5293 N.ar    1  UNL1       -0.2423
     12 C          61.9723   85.6066   11.5014 C.ar    1  UNL1        0.0989
@<TRIPOS>BOND
     1     1     2   ar
     2     2     3   ar
     3     3     4   ar
     4     4     5   ar
     5     5     7    1
     6     7     8   ar
     7     8     9   ar
     8     9    10   ar
     9    10    11   ar
    10    11    12   ar
    11     5     6   ar
    12     6     1   ar
    13    12     7   ar
@<TRIPOS>MOLECULE
*****
 12 13 0 0 0
SMALL
GASTEIGER

@<TRIPOS>ATOM
      1 C          63.0603   85.3717    8.7035 C.ar    1  UNL1        0.0207
      2 C          62.3162   86.6036    9.1261 C.ar    1  UNL1        0.0989
      3 N          61.7805   86.7141   10.5228 N.ar    1  UNL1       -0.2423
      4 C          61.9889   85.5927   11.4970 C.ar    1  UNL1        0.0989
      5 C          62.7331   84.3608   11.0743 C.ar    1  UNL1        0.0207
      6 C          63.2688   84.2503    9.6776 C.ar    1  UNL1        0.0032
      7 C          62.9415   83.2393   12.0485 C.ar    1  UNL1        0.0207
      8 C          62.7187   81.8201   11.6172 C.ar    1  UNL1        0.0032
      9 C          62.9271   80.6986   12.5913 C.ar    1  UNL1        0.0207
     10 C          63.3585   80.9964   13.9967 C.ar    1  UNL1        0.0989
     11 N          63.5814   82.4157   14.4280 N.ar    1  UNL1       -0.2423
     12 C          63.3729   83.5371   13.4539 C.ar    1  UNL1        0.0989
@<TRIPOS>BOND
     1     1     2   ar
     2     2     3   ar
     3     3     4   ar
     4     4     5   ar
     5     5     7    1
     6     7     8   ar
     7     8     9   ar
     8     9    10   ar
     9    10    11   ar
    10    11    12   ar
    11     5     6   ar
    12     6     1   ar
    13    12     7   ar
@<TRIPOS>MOLECULE
*****
 12 13 0 0 0
SMALL
GASTEIGER

@<TRIPOS>ATOM
      1 C          63.9977   83.4112   10.0412 C.ar    1  UNL1        0.0207
      2 C          63.9707   83.2151   11.5281 C.ar    1  UNL1        0.0989
      3 N          63.1440   84.1232   12.3894 N.ar    1  UNL1       -0.2423
      4 C          62.3443   85.2273   11.7640 C.ar    1  UNL1        0.0989
      5 C          62.3713   85.4234   10.2771 C.ar    1  UNL1        0.0207
      6 C          63.1980   84.5153    9.4157 C.ar    1  UNL1        0.0032
      7 C          61.5715   86.5275    9.6515 C.ar    1  UNL1        0.0207
      8 C          60.4997   86.2045    8.6532 C.ar    1  UNL1        0.0032
      9 C          59.6999   87.3087    8.0276 C.ar    1  UNL1        0.0207
     10 C          59.9721   88.7359    8.4005 C.ar    1  UNL1        0.0989
     11 N          61.0439   89.0589    9.3989 N.ar    1  UNL1       -0.2423
     12 C          61.8436   87.9548   10.0244 C.ar    1  UNL1        0.0989
@<TRIPOS>BOND
     1     1     2   ar
     2     2     3   ar
     3     3     4   ar
     4     4     5   ar
     5     5     7    1
     6     7     8   ar
     7     8     9   ar
     8     9    10   ar
     9    10    11   ar
    10    11    12   ar
    11     5     6   ar
    12     6     1   ar
    13    12     7   ar
@<TRIPOS>MOLECULE
*****
 12 13 0 0 0
SMALL
GASTEIGER

@<TRIPOS>ATOM
      1 C          63.9615   83.3679   10.0059 C.ar    1  UNL1        0.0207
      2 C          63.9518   83.1160   11.4846 C.ar    1  UNL1        0.0989
      3 N          63.1754   84.0210   12.3945 N.ar    1  UNL1       -0.2423
      4 C          62.4086   85.1780   11.8259 C.ar    1  UNL1        0.0989
      5 C          62.4183   85.4299   10.3472 C.ar    1  UNL1        0.0207
      6 C          63.1947   84.5248    9.4373 C.ar    1  UNL1        0.0032
      7 C          61.6515   86.5869    9.7785 C.ar    1  UNL1        0.0207
      8 C          61.9998   87.9888   10.1826 C.ar    1  UNL1        0.0032
      9 C          61.2330   89.1458    9.6139 C.ar    1  UNL1        0.0207
     10 C          60.1179   88.9009    8.6410 C.ar    1  UNL1        0.0989
     11 N          59.7696   87.4989    8.2368 N.ar    1  UNL1       -0.2423
     12 C          60.5363   86.3420    8.8056 C.ar    1  UNL1        0.0989
@<TRIPOS>BOND
     1     1     2   ar
     2     2     3   ar
     3     3     4   ar
     4     4     5   ar
     5     5     7    1
     6     7     8   ar
     7     8     9   ar
     8     9    10   ar
     9    10    11   ar
    10    11    12   ar
    11     5     6   ar
    12     6     1   ar
    13    12     7   ar
@<TRIPOS>MOLECULE
*****
 12 13 0 0 0
SMALL
GASTEIGER

@<TRIPOS>ATOM
      1 C          62.0773   86.8999   10.8634 C.ar    1  UNL1        0.0207
      2 C          62.7792   87.8679   11.7690 C.ar    1  UNL1        0.0989
      3 N          63.4645   87.3737   13.0084 N.ar    1  UNL1       -0.2423
      4 C          63.4478   85.9114   13.3422 C.ar    1  UNL1        0.0989
      5 C          62.7459   84.9434   12.4366 C.ar    1  UNL1        0.0207
      6 C          62.0606   85.4376   11.1972 C.ar    1  UNL1        0.0032
      7 C          62.7292   83.4810   12.7703 C.ar    1  UNL1        0.0207
      8 C          62.8795   82.4613   11.6807 C.ar    1  UNL1        0.0032
      9 C          62.8629   80.9989   12.0145 C.ar    1  UNL1        0.0207
     10 C          62.6958   80.5564   13.4379 C.ar    1  UNL1        0.0989
     11 N          62.5455   81.5763   14.5276 N.ar    1  UNL1       -0.2423
     12 C          62.5622   83.0385   14.1938 C.ar    1  UNL1        0.0989
@<TRIPOS>BOND
     1     1     2   ar
     2     2     3   ar
     3     3     4   ar
     4     4     5   ar
     5     5     7    1
     6     7     8   ar
     7     8     9   ar
     8     9    10   ar
     9    10    11   ar
    10    11    12   ar
    11     5     6   ar
    12     6     1   ar
    13    12     7   ar
@<TRIPOS>MOLECULE
*****
 12 13 0 0 0
SMALL
GASTEIGER

@<TRIPOS>ATOM
      1 C          62.8816   81.0887   12.1784 C.ar    1  UNL1        0.0207
      2 C          62.7943   80.7501   13.6371 C.ar    1  UNL1        0.0989
      3 N          62.6621   81.8444   14.6545 N.ar    1  UNL1       -0.2423
      4 C          62.6171   83.2773   14.2132 C.ar    1  UNL1        0.0989
      5 C          62.7044   83.6159   12.7546 C.ar    1  UNL1        0.0207
      6 C          62.8366   82.5216   11.7372 C.ar    1  UNL1        0.0032
      7 C          62.6595   85.0489   12.3133 C.ar    1  UNL1        0.0207
      8 C          61.9175   85.4265   11.0656 C.ar    1  UNL1        0.0032
      9 C          61.8726   86.8594   10.6243 C.ar    1  UNL1        0.0207
     10 C          62.5697   87.9147   11.4307 C.ar    1  UNL1        0.0989
     11 N          63.3118   87.5371   12.6784 N.ar    1  UNL1       -0.2423
     12 C          63.3567   86.1042   13.1197 C.ar    1  UNL1        0.0989
@<TRIPOS>BOND
     1     1     2   ar
     2     2     3   ar
     3     3     4   ar
     4     4     5   ar
     5     5     7    1
     6     7     8   ar
     7     8     9   ar
     8     9    10   ar
     9    10    11   ar
    10    11    12   ar
    11     5     6   ar
    12     6     1   ar
    13    12     7   ar
@<TRIPOS>MOLECULE
*****
 12 13 0 0 0
SMALL
GASTEIGER

@<TRIPOS>ATOM
      1 C          64.4646   87.3221   14.7821 C.ar    1  UNL1        0.0207
      2 C          63.9287   88.2563   13.7381 C.ar    1  UNL1        0.0989
      3 N          63.2037   87.7101   12.5439 N.ar    1  UNL1       -0.2423
      4 C          63.0146   86.2297   12.3938 C.ar    1  UNL1        0.0989
      5 C          63.5504   85.2955   13.4378 C.ar    1  UNL1        0.0207
      6 C          64.2755   85.8417   14.6320 C.ar    1  UNL1        0.0032
      7 C          63.3613   83.8150   13.2877 C.ar    1  UNL1        0.0207
      8 C          62.9981   83.2369   11.9521 C.ar    1  UNL1        0.0032
      9 C          62.8090   81.7564   11.8020 C.ar    1  UNL1        0.0207
     10 C          62.9832   80.8541   12.9875 C.ar    1  UNL1        0.0989
     11 N          63.3465   81.4323   14.3232 N.ar    1  UNL1       -0.2423
     12 C          63.5355   82.9127   14.4732 C.ar    1  UNL1        0.0989
@<TRIPOS>BOND
     1     1     2   ar
     2     2     3   ar
     3     3     4   ar
     4     4     5   ar
     5     5     7    1
     6     7     8   ar
     7     8     9   ar
     8     9    10   ar
     9    10    11   ar
    10    11    12   ar
    11     5     6   ar
    12     6     1   ar
    13    12     7   ar
