@<TRIPOS>MOLECULE
*****
 45 49 0 0 0
SMALL
GASTEIGER

@<TRIPOS>ATOM
      1 N          59.9629   89.2458    8.1557 N.3     1  UNL1       -0.2207
      2 C          60.4157   90.4649    8.9031 C.3     1  UNL1        0.0906
      3 C          61.2430   90.0127   10.0698 C.3     1  UNL1        0.0467
      4 C          61.3015   88.5141   10.0433 C.3     1  UNL1        0.1492
      5 C          61.9730   87.5198   10.9437 C.ar    1  UNL1       -0.0048
      6 C          62.7641   87.9938   12.1267 C.ar    1  UNL1       -0.0032
      7 C          63.4355   86.9995   13.0270 C.ar    1  UNL1       -0.0015
      8 C          63.3158   85.5313   12.7443 C.ar    1  UNL1        0.0232
      9 C          62.5247   85.0573   11.5613 C.ar    1  UNL1       -0.0057
     10 C          61.8533   86.0516   10.6610 C.ar    1  UNL1       -0.0247
     11 C          61.0622   85.5776    9.4780 C.3     1  UNL1        0.0276
     12 C          60.3907   86.5719    8.5777 C.3     1  UNL1        0.0241
     13 C          60.5104   88.0401    8.8604 C.3     1  UNL1        0.0973
     14 S          62.0550   89.1341   11.1826 S.O2    1  UNL1        0.0103
     15 O          62.7930   89.2294   10.8966 O.2     1  UNL1       -0.1684
     16 O          60.8118   89.1041   12.0213 O.2     1  UNL1       -0.1684
     17 C          62.8085   89.7542   12.3218 C.ar    1  UNL1        0.1061
     18 C          62.3097   89.5927   13.7271 C.ar    1  UNL1        0.0207
     19 C          63.0631   90.2127   14.8663 C.ar    1  UNL1        0.0310
     20 C          64.3155   90.9942   14.6002 C.ar    1  UNL1        0.1402
     21 F          65.0691   91.6143   15.7394 F       1  UNL1       -0.2042
     22 C          64.8144   91.1557   13.1948 C.ar    1  UNL1        0.0310
     23 C          64.0609   90.5357   12.0557 C.ar    1  UNL1        0.0207
     24 N          59.1121   89.2344    6.9203 N.3     1  UNL1       -0.2436
     25 H          59.2261   88.3154    6.4927 H       1  UNL1        0.1416
     26 C          56.7819   90.5970    5.6111 C.3     1  UNL1        0.0014
     27 C          58.1812   90.9285    5.1844 C.3     1  UNL1        0.0161
     28 C          58.4155   91.9413    4.1031 C.3     1  UNL1        0.0069
     29 C          59.8147   92.2729    3.6764 C.3     1  UNL1        0.0366
     30 C          60.9798   91.5916    4.3309 C.3     1  UNL1        0.0070
     31 C          60.7455   90.5788    5.4123 C.3     1  UNL1        0.0175
     32 C          59.3462   90.2472    5.8391 C.3     1  UNL1        0.0687
     33 C          60.0489   93.2857    2.5950 C.2     1  UNL1        0.0500
     34 O          60.0259   94.7497    2.9209 O.co2   1  UNL1       -0.5492
     35 O          60.3063   92.8346    1.1877 O.co2   1  UNL1       -0.5492
     36 C          63.9873   84.5370   13.6446 C.3     1  UNL1        0.3242
     37 F          64.6453   83.9039   12.4547 F       1  UNL1       -0.2176
     38 C          64.6588   83.5428   14.5449 C.3     1  UNL1        0.4363
     39 F          65.3303   82.5484   15.4453 F       1  UNL1       -0.1666
     40 F          65.9444   84.3068   14.4298 F       1  UNL1       -0.1666
     41 F          63.4646   82.6632   14.7689 F       1  UNL1       -0.1666
     42 C          63.3293   85.1701   14.8346 C.3     1  UNL1        0.4363
     43 F          62.6713   85.8033   16.0247 F       1  UNL1       -0.1666
     44 F          61.9535   84.6225   14.5958 F       1  UNL1       -0.1666
     45 F          64.4367   85.9343   15.4979 F       1  UNL1       -0.1666
@<TRIPOS>UNITY_ATOM_ATTR
34 1
charge -1
@<TRIPOS>BOND
     1    27    26    1
     2    27    28    1
     3    28    29    1
     4    29    33    1
     5    33    34   ar
     6    33    35   ar
     7    29    30    1
     8    30    31    1
     9    31    32    1
    10    32    24    1
    11    24     1    1
    12     1     2    1
    13     2     3    1
    14     3     4    1
    15     4    14    1
    16    14    15    2
    17    14    16    2
    18    14    17    1
    19    17    18   ar
    20    18    19   ar
    21    19    20   ar
    22    20    21    1
    23    20    22   ar
    24    22    23   ar
    25     4     5    1
    26     5     6   ar
    27     6     7   ar
    28     7     8   ar
    29     8    36    1
    30    36    37    1
    31    36    38    1
    32    38    39    1
    33    38    40    1
    34    38    41    1
    35    36    42    1
    36    42    43    1
    37    42    44    1
    38    42    45    1
    39     8     9   ar
    40     9    10   ar
    41    10    11    1
    42    11    12    1
    43    13    12    1
    44    32    27    1
    45    13     1    1
    46    13     4    1
    47    23    17   ar
    48    10     5   ar
    49    24    25    1
@<TRIPOS>MOLECULE
*****
 45 49 0 0 0
SMALL
GASTEIGER

@<TRIPOS>ATOM
      1 N          63.2900   88.0910   14.1837 N.3     1  UNL1       -0.2207
      2 C          64.2490   88.4284   15.2865 C.3     1  UNL1        0.0906
      3 C          65.0199   89.6472   14.8737 C.3     1  UNL1        0.0467
      4 C          64.5372   90.0629   13.5157 C.3     1  UNL1        0.1492
      5 C          64.9331   91.1931   12.6123 C.ar    1  UNL1       -0.0048
      6 C          66.0022   92.1548   13.0387 C.ar    1  UNL1       -0.0032
      7 C          66.3981   93.2849   12.1354 C.ar    1  UNL1       -0.0015
      8 C          65.7248   93.4532   10.8055 C.ar    1  UNL1        0.0232
      9 C          64.6557   92.4914   10.3791 C.ar    1  UNL1       -0.0057
     10 C          64.2598   91.3614   11.2825 C.ar    1  UNL1       -0.0247
     11 C          63.1907   90.3995   10.8561 C.3     1  UNL1        0.0276
     12 C          62.7948   89.2694   11.7594 C.3     1  UNL1        0.0241
     13 C          63.4680   89.1011   13.0893 C.3     1  UNL1        0.0973
     14 S          65.6172   90.9411   14.0746 S.O2    1  UNL1        0.0103
     15 O          66.2896   90.6326   13.7775 O.2     1  UNL1       -0.1684
     16 O          64.5827   91.7581   14.7901 O.2     1  UNL1       -0.1684
     17 C          66.6973   91.8192   14.6335 C.ar    1  UNL1        0.1061
     18 C          68.1206   91.6239   14.2024 C.ar    1  UNL1        0.0207
     19 C          69.2007   92.5020   14.7613 C.ar    1  UNL1        0.0310
     20 C          68.8574   93.5754   15.7512 C.ar    1  UNL1        0.1402
     21 F          69.9375   94.4536   16.3101 F       1  UNL1       -0.2042
     22 C          67.4340   93.7707   16.1822 C.ar    1  UNL1        0.0310
     23 C          66.3540   92.8926   15.6234 C.ar    1  UNL1        0.0207
     24 N          62.3226   86.9445   14.1766 N.3     1  UNL1       -0.2436
     25 H          62.1933   86.6622   15.1482 H       1  UNL1        0.1416
     26 C          62.7286   84.3448   15.6178 C.3     1  UNL1        0.0014
     27 C          62.8437   84.3998   14.1232 C.3     1  UNL1        0.0161
     28 C          63.1619   83.1550   13.3492 C.3     1  UNL1        0.0069
     29 C          63.2771   83.2098   11.8547 C.3     1  UNL1        0.0366
     30 C          63.0740   84.5097   11.1341 C.3     1  UNL1        0.0070
     31 C          62.7559   85.7545   11.9080 C.3     1  UNL1        0.0175
     32 C          62.6407   85.6997   13.4027 C.3     1  UNL1        0.0687
     33 C          63.5952   81.9650   11.0807 C.2     1  UNL1        0.0500
     34 O          64.5590   82.0214    9.9327 O.co2   1  UNL1       -0.5492
     35 O          62.9495   80.6636   11.4547 O.co2   1  UNL1       -0.5492
     36 C          66.1208   94.5834    9.9021 C.3     1  UNL1        0.3242
     37 F          64.8096   95.2595   10.1734 F       1  UNL1       -0.2176
     38 C          66.5166   95.7135    8.9988 C.3     1  UNL1        0.4363
     39 F          66.9125   96.8437    8.0954 F       1  UNL1       -0.1666
     40 F          66.3348   96.6815   10.1301 F       1  UNL1       -0.1666
     41 F          66.7454   94.8905    7.7658 F       1  UNL1       -0.1666
     42 C          67.4319   93.9073    9.6309 C.3     1  UNL1        0.4363
     43 F          68.7432   93.2311    9.3596 F       1  UNL1       -0.1666
     44 F          66.8929   92.5153    9.4836 F       1  UNL1       -0.1666
     45 F          68.4325   95.0239    9.6768 F       1  UNL1       -0.1666
@<TRIPOS>UNITY_ATOM_ATTR
34 1
charge -1
@<TRIPOS>BOND
     1    27    26    1
     2    27    28    1
     3    28    29    1
     4    29    33    1
     5    33    34   ar
     6    33    35   ar
     7    29    30    1
     8    30    31    1
     9    31    32    1
    10    32    24    1
    11    24     1    1
    12     1     2    1
    13     2     3    1
    14     3     4    1
    15     4    14    1
    16    14    15    2
    17    14    16    2
    18    14    17    1
    19    17    18   ar
    20    18    19   ar
    21    19    20   ar
    22    20    21    1
    23    20    22   ar
    24    22    23   ar
    25     4     5    1
    26     5     6   ar
    27     6     7   ar
    28     7     8   ar
    29     8    36    1
    30    36    37    1
    31    36    38    1
    32    38    39    1
    33    38    40    1
    34    38    41    1
    35    36    42    1
    36    42    43    1
    37    42    44    1
    38    42    45    1
    39     8     9   ar
    40     9    10   ar
    41    10    11    1
    42    11    12    1
    43    13    12    1
    44    32    27    1
    45    13     1    1
    46    13     4    1
    47    23    17   ar
    48    10     5   ar
    49    24    25    1
@<TRIPOS>MOLECULE
*****
 45 49 0 0 0
SMALL
GASTEIGER

@<TRIPOS>ATOM
      1 N          62.1941   89.7971   10.5829 N.3     1  UNL1       -0.2207
      2 C          62.5661   90.7816    9.5141 C.3     1  UNL1        0.0906
      3 C          63.6897   91.6282   10.0346 C.3     1  UNL1        0.0467
      4 C          64.0120   91.1669   11.4250 C.3     1  UNL1        0.1492
      5 C          65.0279   91.6312   12.4263 C.ar    1  UNL1       -0.0048
      6 C          65.9522   92.7629   12.0873 C.ar    1  UNL1       -0.0032
      7 C          66.9679   93.2271   13.0886 C.ar    1  UNL1       -0.0015
      8 C          67.0594   92.5597   14.4288 C.ar    1  UNL1        0.0232
      9 C          66.1352   91.4280   14.7677 C.ar    1  UNL1       -0.0057
     10 C          65.1194   90.9638   13.7665 C.ar    1  UNL1       -0.0247
     11 C          64.1950   89.8320   14.1054 C.3     1  UNL1        0.0276
     12 C          63.1792   89.3678   13.1041 C.3     1  UNL1        0.0241
     13 C          63.0877   90.0352   11.7639 C.3     1  UNL1        0.0973
     14 S          64.8644   92.3047   10.9466 S.O2    1  UNL1        0.0103
     15 O          64.4452   92.9545   11.1403 O.2     1  UNL1       -0.1684
     16 O          65.8899   91.3284   10.4516 O.2     1  UNL1       -0.1684
     17 C          65.7168   93.4425   10.4682 C.ar    1  UNL1        0.1061
     18 C          66.9937   93.1650    9.7317 C.ar    1  UNL1        0.0207
     19 C          67.8461   94.3028    9.2533 C.ar    1  UNL1        0.0310
     20 C          67.4216   95.7181    9.5114 C.ar    1  UNL1        0.1402
     21 F          68.2740   96.8559    9.0330 F       1  UNL1       -0.2042
     22 C          66.1446   95.9956   10.2479 C.ar    1  UNL1        0.0310
     23 C          65.2923   94.8578   10.7263 C.ar    1  UNL1        0.0207
     24 N          61.1174   88.7570   10.4875 N.3     1  UNL1       -0.2436
     25 H          61.0779   88.2901   11.3935 H       1  UNL1        0.1416
     26 C          59.1647   88.7040    8.2105 C.3     1  UNL1        0.0014
     27 C          60.2298   87.6524    8.3099 C.3     1  UNL1        0.0161
     28 C          60.3185   86.5744    7.2707 C.3     1  UNL1        0.0069
     29 C          61.3835   85.5228    7.3700 C.3     1  UNL1        0.0366
     30 C          62.3599   85.5492    8.5085 C.3     1  UNL1        0.0070
     31 C          62.2711   86.6273    9.5476 C.3     1  UNL1        0.0175
     32 C          61.2060   87.6790    9.4484 C.3     1  UNL1        0.0687
     33 C          61.4723   84.4447    6.3308 C.2     1  UNL1        0.0500
     34 O          60.2880   83.5648    6.0599 O.co2   1  UNL1       -0.5492
     35 O          62.7453   84.2465    5.5625 O.co2   1  UNL1       -0.5492
     36 C          68.0753   93.0240   15.4301 C.3     1  UNL1        0.3242
     37 F          66.9722   93.4926   16.3319 F       1  UNL1       -0.2176
     38 C          69.0911   93.4883   16.4314 C.3     1  UNL1        0.4363
     39 F          70.1069   93.9526   17.4327 F       1  UNL1       -0.1666
     40 F          69.4479   92.0624   16.7306 F       1  UNL1       -0.1666
     41 F          68.8608   94.9601   16.2565 F       1  UNL1       -0.1666
     42 C          69.1785   92.5554   14.5282 C.3     1  UNL1        0.4363
     43 F          70.2817   92.0867   13.6263 F       1  UNL1       -0.1666
     44 F          70.1199   93.6947   14.7837 F       1  UNL1       -0.1666
     45 F          68.6565   91.2722   13.9528 F       1  UNL1       -0.1666
@<TRIPOS>UNITY_ATOM_ATTR
34 1
charge -1
@<TRIPOS>BOND
     1    27    26    1
     2    27    28    1
     3    28    29    1
     4    29    33    1
     5    33    34   ar
     6    33    35   ar
     7    29    30    1
     8    30    31    1
     9    31    32    1
    10    32    24    1
    11    24     1    1
    12     1     2    1
    13     2     3    1
    14     3     4    1
    15     4    14    1
    16    14    15    2
    17    14    16    2
    18    14    17    1
    19    17    18   ar
    20    18    19   ar
    21    19    20   ar
    22    20    21    1
    23    20    22   ar
    24    22    23   ar
    25     4     5    1
    26     5     6   ar
    27     6     7   ar
    28     7     8   ar
    29     8    36    1
    30    36    37    1
    31    36    38    1
    32    38    39    1
    33    38    40    1
    34    38    41    1
    35    36    42    1
    36    42    43    1
    37    42    44    1
    38    42    45    1
    39     8     9   ar
    40     9    10   ar
    41    10    11    1
    42    11    12    1
    43    13    12    1
    44    32    27    1
    45    13     1    1
    46    13     4    1
    47    23    17   ar
    48    10     5   ar
    49    24    25    1
@<TRIPOS>MOLECULE
*****
 45 49 0 0 0
SMALL
GASTEIGER

@<TRIPOS>ATOM
      1 N          62.4047   89.2615   11.0874 N.3     1  UNL1       -0.2207
      2 C          62.6316   90.2408    9.9741 C.3     1  UNL1        0.0906
      3 C          63.7041   91.1956   10.4080 C.3     1  UNL1        0.0467
      4 C          64.1399   90.8063   11.7895 C.3     1  UNL1        0.1492
      5 C          65.1643   91.3860   12.7194 C.ar    1  UNL1       -0.0048
      6 C          65.9673   92.5813   12.2995 C.ar    1  UNL1       -0.0032
      7 C          66.9917   93.1608   13.2294 C.ar    1  UNL1       -0.0015
      8 C          67.2130   92.5451   14.5791 C.ar    1  UNL1        0.0232
      9 C          66.4100   91.3498   14.9990 C.ar    1  UNL1       -0.0057
     10 C          65.3856   90.7702   14.0691 C.ar    1  UNL1       -0.0247
     11 C          64.5825   89.5749   14.4890 C.3     1  UNL1        0.0276
     12 C          63.5582   88.9953   13.5591 C.3     1  UNL1        0.0241
     13 C          63.3368   89.6110   12.2094 C.3     1  UNL1        0.0973
     14 S          64.8633   91.9973   11.2343 S.O2    1  UNL1        0.0103
     15 O          65.4293   91.6803   10.7709 O.2     1  UNL1       -0.1684
     16 O          63.9462   92.9088   11.9944 O.2     1  UNL1       -0.1684
     17 C          65.5869   93.1882   10.6790 C.ar    1  UNL1        0.1061
     18 C          66.8487   92.9986    9.8906 C.ar    1  UNL1        0.0207
     19 C          67.5722   94.1895    9.3354 C.ar    1  UNL1        0.0310
     20 C          67.0339   95.5700    9.5686 C.ar    1  UNL1        0.1402
     21 F          67.7574   96.7609    9.0133 F       1  UNL1       -0.2042
     22 C          65.7719   95.7596   10.3571 C.ar    1  UNL1        0.0310
     23 C          65.0485   94.5687   10.9122 C.ar    1  UNL1        0.0207
     24 N          61.4186   88.1311   11.0800 N.3     1  UNL1       -0.2436
     25 H          60.8319   88.2467   11.9064 H       1  UNL1        0.1416
     26 C          61.7449   86.6408    8.4968 C.3     1  UNL1        0.0014
     27 C          62.0677   85.9669    9.7975 C.3     1  UNL1        0.0161
     28 C          62.5536   84.5478    9.8065 C.3     1  UNL1        0.0069
     29 C          62.8764   83.8738   11.1071 C.3     1  UNL1        0.0366
     30 C          62.7132   84.6190   12.3987 C.3     1  UNL1        0.0070
     31 C          62.2273   86.0380   12.3897 C.3     1  UNL1        0.0175
     32 C          61.9045   86.7121   11.0890 C.3     1  UNL1        0.0687
     33 C          63.3623   82.4548   11.1162 C.2     1  UNL1        0.0500
     34 O          62.6452   81.4217   11.9338 O.co2   1  UNL1       -0.5492
     35 O          64.5654   82.0688   10.3076 O.co2   1  UNL1       -0.5492
     36 C          68.2375   93.1247   15.5090 C.3     1  UNL1        0.3242
     37 F          67.1421   93.6336   16.3985 F       1  UNL1       -0.2176
     38 C          69.2618   93.7044   16.4389 C.3     1  UNL1        0.4363
     39 F          70.2862   94.2841   17.3688 F       1  UNL1       -0.1666
     40 F          69.7198   92.3215   16.7963 F       1  UNL1       -0.1666
     41 F          68.9321   95.1476   16.1975 F       1  UNL1       -0.1666
     42 C          69.3328   92.6159   14.6196 C.3     1  UNL1        0.4363
     43 F          70.4283   92.1071   13.7300 F       1  UNL1       -0.1666
     44 F          68.6781   91.3189   14.2469 F       1  UNL1       -0.1666
     45 F          70.3685   93.7002   14.6626 F       1  UNL1       -0.1666
@<TRIPOS>UNITY_ATOM_ATTR
34 1
charge -1
@<TRIPOS>BOND
     1    27    26    1
     2    27    28    1
     3    28    29    1
     4    29    33    1
     5    33    34   ar
     6    33    35   ar
     7    29    30    1
     8    30    31    1
     9    31    32    1
    10    32    24    1
    11    24     1    1
    12     1     2    1
    13     2     3    1
    14     3     4    1
    15     4    14    1
    16    14    15    2
    17    14    16    2
    18    14    17    1
    19    17    18   ar
    20    18    19   ar
    21    19    20   ar
    22    20    21    1
    23    20    22   ar
    24    22    23   ar
    25     4     5    1
    26     5     6   ar
    27     6     7   ar
    28     7     8   ar
    29     8    36    1
    30    36    37    1
    31    36    38    1
    32    38    39    1
    33    38    40    1
    34    38    41    1
    35    36    42    1
    36    42    43    1
    37    42    44    1
    38    42    45    1
    39     8     9   ar
    40     9    10   ar
    41    10    11    1
    42    11    12    1
    43    13    12    1
    44    32    27    1
    45    13     1    1
    46    13     4    1
    47    23    17   ar
    48    10     5   ar
    49    24    25    1
@<TRIPOS>MOLECULE
*****
 45 49 0 0 0
SMALL
GASTEIGER

@<TRIPOS>ATOM
      1 N          63.6712   89.1956   14.6776 N.3     1  UNL1       -0.2207
      2 C          63.8641   87.8807   15.3732 C.3     1  UNL1        0.0906
      3 C          63.6191   86.7880   14.3752 C.3     1  UNL1        0.0467
      4 C          63.2747   87.4276   13.0629 C.3     1  UNL1        0.1492
      5 C          62.9359   86.8472   11.7218 C.ar    1  UNL1       -0.0048
      6 C          62.9037   85.3593   11.5349 C.ar    1  UNL1       -0.0032
      7 C          62.5649   84.7790   10.1939 C.ar    1  UNL1       -0.0015
      8 C          62.2584   85.6867    9.0397 C.ar    1  UNL1        0.0232
      9 C          62.2906   87.1746    9.2265 C.ar    1  UNL1       -0.0057
     10 C          62.6294   87.7549   10.5676 C.ar    1  UNL1       -0.0247
     11 C          62.6617   89.2429   10.7545 C.3     1  UNL1        0.0276
     12 C          63.0004   89.8232   12.0955 C.3     1  UNL1        0.0241
     13 C          63.3069   88.9155   13.2497 C.3     1  UNL1        0.0973
     14 S          63.2816   85.9280   13.0277 S.O2    1  UNL1        0.0103
     15 O          64.0559   85.7390   13.0120 O.2     1  UNL1       -0.1684
     16 O          61.7818   85.9205   13.0492 O.2     1  UNL1       -0.1684
     17 C          63.2885   84.4284   12.9924 C.ar    1  UNL1        0.1061
     18 C          62.1511   83.6588   13.5956 C.ar    1  UNL1        0.0207
     19 C          62.1580   82.1592   13.5604 C.ar    1  UNL1        0.0310
     20 C          63.3024   81.4293   12.9220 C.ar    1  UNL1        0.1402
     21 F          63.3094   79.9297   12.8868 F       1  UNL1       -0.2042
     22 C          64.4399   82.1989   12.3188 C.ar    1  UNL1        0.0310
     23 C          64.4329   83.6984   12.3541 C.ar    1  UNL1        0.0207
     24 N          63.8170   90.5524   15.3005 N.3     1  UNL1       -0.2436
     25 H          63.1654   91.1701   14.8166 H       1  UNL1        0.1416
     26 C          64.4249   92.6584   17.3488 C.3     1  UNL1        0.0014
     27 C          65.4539   92.2932   16.3204 C.3     1  UNL1        0.0161
     28 C          66.7869   92.9810   16.3161 C.3     1  UNL1        0.0069
     29 C          67.8160   92.6158   15.2878 C.3     1  UNL1        0.0366
     30 C          67.5121   91.5628   14.2636 C.3     1  UNL1        0.0070
     31 C          66.1791   90.8750   14.2679 C.3     1  UNL1        0.0175
     32 C          65.1499   91.2402   15.2963 C.3     1  UNL1        0.0687
     33 C          69.1490   93.3036   15.2835 C.2     1  UNL1        0.0500
     34 O          69.3993   94.4600   16.2056 O.co2   1  UNL1       -0.5492
     35 O          70.2318   92.8350   14.3571 O.co2   1  UNL1       -0.5492
     36 C          61.9196   85.1063    7.6986 C.3     1  UNL1        0.3242
     37 F          63.1752   84.2866    7.7362 F       1  UNL1       -0.2176
     38 C          61.5809   84.5260    6.3575 C.3     1  UNL1        0.4363
     39 F          61.2421   83.9456    5.0164 F       1  UNL1       -0.1666
     40 F          63.0082   84.6894    5.9263 F       1  UNL1       -0.1666
     41 F          60.1229   84.2929    6.6221 F       1  UNL1       -0.1666
     42 C          60.6640   85.9261    7.6609 C.3     1  UNL1        0.4363
     43 F          59.4084   86.7458    7.6233 F       1  UNL1       -0.1666
     44 F          60.8704   86.5141    6.2966 F       1  UNL1       -0.1666
     45 F          60.0088   85.6472    8.9812 F       1  UNL1       -0.1666
@<TRIPOS>UNITY_ATOM_ATTR
34 1
charge -1
@<TRIPOS>BOND
     1    27    26    1
     2    27    28    1
     3    28    29    1
     4    29    33    1
     5    33    34   ar
     6    33    35   ar
     7    29    30    1
     8    30    31    1
     9    31    32    1
    10    32    24    1
    11    24     1    1
    12     1     2    1
    13     2     3    1
    14     3     4    1
    15     4    14    1
    16    14    15    2
    17    14    16    2
    18    14    17    1
    19    17    18   ar
    20    18    19   ar
    21    19    20   ar
    22    20    21    1
    23    20    22   ar
    24    22    23   ar
    25     4     5    1
    26     5     6   ar
    27     6     7   ar
    28     7     8   ar
    29     8    36    1
    30    36    37    1
    31    36    38    1
    32    38    39    1
    33    38    40    1
    34    38    41    1
    35    36    42    1
    36    42    43    1
    37    42    44    1
    38    42    45    1
    39     8     9   ar
    40     9    10   ar
    41    10    11    1
    42    11    12    1
    43    13    12    1
    44    32    27    1
    45    13     1    1
    46    13     4    1
    47    23    17   ar
    48    10     5   ar
    49    24    25    1
@<TRIPOS>MOLECULE
*****
 45 49 0 0 0
SMALL
GASTEIGER

@<TRIPOS>ATOM
      1 N          59.3043   88.1478    7.8676 N.3     1  UNL1       -0.2207
      2 C          59.5853   86.7002    8.1423 C.3     1  UNL1        0.0906
      3 C          60.5742   86.6253    9.2677 C.3     1  UNL1        0.0467
      4 C          60.9043   88.0266    9.6885 C.3     1  UNL1        0.1492
      5 C          61.8183   88.5674   10.7480 C.ar    1  UNL1       -0.0048
      6 C          62.6030   87.6265   11.6132 C.ar    1  UNL1       -0.0032
      7 C          63.5169   88.1673   12.6726 C.ar    1  UNL1       -0.0015
      8 C          63.6460   89.6491   12.8667 C.ar    1  UNL1        0.0232
      9 C          62.8613   90.5900   12.0014 C.ar    1  UNL1       -0.0057
     10 C          61.9474   90.0492   10.9421 C.ar    1  UNL1       -0.0247
     11 C          61.1625   90.9902   10.0768 C.3     1  UNL1        0.0276
     12 C          60.2487   90.4494    9.0174 C.3     1  UNL1        0.0241
     13 C          60.1195   88.9676    8.8233 C.3     1  UNL1        0.0973
     14 S          61.6218   86.9688   10.4734 S.O2    1  UNL1        0.0103
     15 O          62.2653   86.8045   10.0323 O.2     1  UNL1       -0.1684
     16 O          60.5531   87.0235   11.5244 O.2     1  UNL1       -0.1684
     17 C          62.3395   85.9108   11.2582 C.ar    1  UNL1        0.1061
     18 C          63.3596   85.0407   10.5859 C.ar    1  UNL1        0.0207
     19 C          64.0772   83.9828   11.3707 C.ar    1  UNL1        0.0310
     20 C          63.7746   83.7951   12.8278 C.ar    1  UNL1        0.1402
     21 F          64.4922   82.7371   13.6127 F       1  UNL1       -0.2042
     22 C          62.7544   84.6653   13.5002 C.ar    1  UNL1        0.0310
     23 C          62.0369   85.7231   12.7154 C.ar    1  UNL1        0.0207
     24 N          58.3718   88.6819    6.8210 N.3     1  UNL1       -0.2436
     25 H          58.1103   87.8932    6.2294 H       1  UNL1        0.1416
     26 C          56.3573   90.5381    5.5977 C.3     1  UNL1        0.0014
     27 C          57.8161   90.7079    5.2926 C.3     1  UNL1        0.0161
     28 C          58.2676   91.8059    4.3758 C.3     1  UNL1        0.0069
     29 C          59.7264   91.9758    4.0706 C.3     1  UNL1        0.0366
     30 C          60.7337   91.0478    4.6822 C.3     1  UNL1        0.0070
     31 C          60.2821   89.9498    5.5990 C.3     1  UNL1        0.0175
     32 C          58.8233   89.7798    5.9043 C.3     1  UNL1        0.0687
     33 C          60.1779   93.0738    3.1538 C.2     1  UNL1        0.0500
     34 O          60.9676   92.7448    1.9217 O.co2   1  UNL1       -0.5492
     35 O          59.8397   94.5009    3.4691 O.co2   1  UNL1       -0.5492
     36 C          64.5600   90.1899   13.9261 C.3     1  UNL1        0.3242
     37 F          65.1027   91.1891   12.9478 F       1  UNL1       -0.2176
     38 C          65.4739   90.7307   14.9854 C.3     1  UNL1        0.4363
     39 F          66.3878   91.2715   16.0449 F       1  UNL1       -0.1666
     40 F          66.6238   90.6704   14.0242 F       1  UNL1       -0.1666
     41 F          64.4440   90.8565   16.0687 F       1  UNL1       -0.1666
     42 C          64.0173   89.1907   14.9044 C.3     1  UNL1        0.4363
     43 F          63.4746   88.1915   15.8827 F       1  UNL1       -0.1666
     44 F          65.2171   88.2910   14.9315 F       1  UNL1       -0.1666
     45 F          62.6482   89.7094   15.2312 F       1  UNL1       -0.1666
@<TRIPOS>UNITY_ATOM_ATTR
34 1
charge -1
@<TRIPOS>BOND
     1    27    26    1
     2    27    28    1
     3    28    29    1
     4    29    33    1
     5    33    34   ar
     6    33    35   ar
     7    29    30    1
     8    30    31    1
     9    31    32    1
    10    32    24    1
    11    24     1    1
    12     1     2    1
    13     2     3    1
    14     3     4    1
    15     4    14    1
    16    14    15    2
    17    14    16    2
    18    14    17    1
    19    17    18   ar
    20    18    19   ar
    21    19    20   ar
    22    20    21    1
    23    20    22   ar
    24    22    23   ar
    25     4     5    1
    26     5     6   ar
    27     6     7   ar
    28     7     8   ar
    29     8    36    1
    30    36    37    1
    31    36    38    1
    32    38    39    1
    33    38    40    1
    34    38    41    1
    35    36    42    1
    36    42    43    1
    37    42    44    1
    38    42    45    1
    39     8     9   ar
    40     9    10   ar
    41    10    11    1
    42    11    12    1
    43    13    12    1
    44    32    27    1
    45    13     1    1
    46    13     4    1
    47    23    17   ar
    48    10     5   ar
    49    24    25    1
