@<TRIPOS>MOLECULE
*****
 33 35 0 0 0
SMALL
GASTEIGER

@<TRIPOS>ATOM
      1 C          63.7709   86.0719   13.6319 C.ar    1  UNL1        0.1307
      2 C          63.5275   87.4390   13.0648 C.ar    1  UNL1        0.0126
      3 C          62.6758   87.6026   11.8410 C.ar    1  UNL1       -0.0047
      4 C          62.0675   86.3990   11.1842 C.ar    1  UNL1       -0.0102
      5 C          62.3109   85.0319   11.7513 C.ar    1  UNL1       -0.0048
      6 C          63.1626   84.8683   12.9751 C.ar    1  UNL1        0.0106
      7 C          61.2158   86.5626    9.9603 C.3     1  UNL1        0.1227
      8 C          61.5268   85.7788    8.7199 C.2     1  UNL1       -0.0115
      9 C          60.6751   85.9424    7.4960 C.2     1  UNL1        0.0141
     10 C          59.5124   86.8898    7.5126 C.2     1  UNL1        0.0883
     11 N          59.2013   87.6736    8.7531 N.am    1  UNL1       -0.1774
     12 C          60.0530   87.5100    9.9769 C.2     1  UNL1        0.2533
     13 O          59.7419   88.2939   11.2175 O.2     1  UNL1       -0.2723
     14 C          63.4060   83.5011   13.5422 C.3     1  UNL1        0.0218
     15 C          62.2195   83.6644   14.4452 C.3     1  UNL1        0.0045
     16 C          64.5926   83.3377   12.6393 C.3     1  UNL1        0.0045
     17 C          63.6494   82.1339   14.1093 C.3     1  UNL1        0.0045
     18 C          63.9951   85.9517   16.2175 C.3     1  UNL1        0.2524
     19 O          64.6226   85.9083   14.8558 O.3     1  UNL1       -0.4721
     20 C          64.1358   88.6427   13.7216 C.3     1  UNL1        0.0467
     21 C          63.5325   89.9991   13.5073 C.3     1  UNL1        0.0769
     22 N          64.3713   91.1148   12.9579 N.3     1  UNL1       -0.2723
     23 C          65.3918   91.7850   13.8292 C.3     1  UNL1        0.0735
     24 C          66.2306   92.9006   13.2797 C.3     1  UNL1        0.0348
     25 C          66.0487   93.3459   11.8589 C.3     1  UNL1        0.0779
     26 C          65.0282   92.6757   10.9876 C.3     1  UNL1        0.0348
     27 C          64.1895   91.5601   11.5371 C.3     1  UNL1        0.0735
     28 N          66.8875   94.4616   11.3094 N.3     1  UNL1       -0.1845
     29 H          67.8088   94.3764   11.7389 H       1  UNL1        0.1484
     30 S          67.1083   94.5754    9.8301 S.O2    1  UNL1        0.0426
     31 C          67.3290   94.6893    8.3509 C.3     1  UNL1        0.1957
     32 O          68.1947   93.5445    9.9129 O.2     1  UNL1       -0.1575
     33 O          66.0219   95.6063    9.7474 O.2     1  UNL1       -0.1575
@<TRIPOS>BOND
     1    18    19    1
     2    19     1    1
     3     1     2   ar
     4     2    20    1
     5    20    21    1
     6    21    22    1
     7    22    23    1
     8    23    24    1
     9    24    25    1
    10    25    28    1
    11    28    30    1
    12    30    31    1
    13    30    32    2
    14    30    33    2
    15    25    26    1
    16    26    27    1
    17     2     3   ar
    18     3     4   ar
    19     4     7    1
    20     7     8    1
    21     8     9    2
    22     9    10    1
    23    10    11    2
    24    11    12    1
    25    12    13    2
    26     4     5   ar
    27     5     6   ar
    28     6    14    1
    29    14    15    1
    30    14    16    1
    31    14    17    1
    32     6     1   ar
    33    27    22    1
    34    12     7    1
    35    28    29    1
@<TRIPOS>MOLECULE
*****
 33 35 0 0 0
SMALL
GASTEIGER

@<TRIPOS>ATOM
      1 C          63.7679   85.9294   13.6517 C.ar    1  UNL1        0.1307
      2 C          63.5398   87.2983   13.0826 C.ar    1  UNL1        0.0126
      3 C          62.7259   87.4654   11.8338 C.ar    1  UNL1       -0.0047
      4 C          62.1400   86.2634   11.1540 C.ar    1  UNL1       -0.0102
      5 C          62.3681   84.8945   11.7231 C.ar    1  UNL1       -0.0048
      6 C          63.1820   84.7275   12.9719 C.ar    1  UNL1        0.0106
      7 C          61.3261   86.4305    9.9052 C.3     1  UNL1        0.1227
      8 C          60.0571   87.2297    9.9383 C.2     1  UNL1       -0.0115
      9 C          59.2432   87.3967    8.6894 C.2     1  UNL1        0.0141
     10 C          59.6982   86.7646    7.4075 C.2     1  UNL1        0.0883
     11 N          60.9671   85.9654    7.3744 N.am    1  UNL1       -0.1774
     12 C          61.7810   85.7984    8.6233 C.2     1  UNL1        0.2533
     13 O          63.0500   84.9991    8.5901 O.2     1  UNL1       -0.2723
     14 C          63.4100   83.3584   13.5410 C.3     1  UNL1        0.0218
     15 C          64.6024   83.1857   12.6475 C.3     1  UNL1        0.0045
     16 C          62.2177   83.5312   14.4346 C.3     1  UNL1        0.0045
     17 C          63.6381   81.9894   14.1101 C.3     1  UNL1        0.0045
     18 C          63.9331   85.9140   16.2444 C.3     1  UNL1        0.2524
     19 O          64.5818   85.7623   14.9005 O.3     1  UNL1       -0.4721
     20 C          64.1257   88.5003   13.7623 C.3     1  UNL1        0.0467
     21 C          63.5049   89.8513   13.5636 C.3     1  UNL1        0.0769
     22 N          64.3324   90.9871   13.0390 N.3     1  UNL1       -0.2723
     23 C          65.3381   91.6559   13.9285 C.3     1  UNL1        0.0735
     24 C          66.1655   92.7916   13.4039 C.3     1  UNL1        0.0348
     25 C          65.9873   93.2587   11.9896 C.3     1  UNL1        0.0779
     26 C          64.9816   92.5900   11.1000 C.3     1  UNL1        0.0348
     27 C          64.1542   91.4542   11.6247 C.3     1  UNL1        0.0735
     28 N          66.8148   94.3945   11.4650 N.3     1  UNL1       -0.1845
     29 H          67.7399   94.3032   11.8846 H       1  UNL1        0.1484
     30 S          67.0229   94.5511    9.9878 S.O2    1  UNL1        0.0426
     31 C          67.2310   94.7076    8.5106 C.3     1  UNL1        0.1957
     32 O          68.1366   93.5477   10.0384 O.2     1  UNL1       -0.1575
     33 O          65.9091   95.5545    9.9372 O.2     1  UNL1       -0.1575
@<TRIPOS>BOND
     1    18    19    1
     2    19     1    1
     3     1     2   ar
     4     2    20    1
     5    20    21    1
     6    21    22    1
     7    22    23    1
     8    23    24    1
     9    24    25    1
    10    25    28    1
    11    28    30    1
    12    30    31    1
    13    30    32    2
    14    30    33    2
    15    25    26    1
    16    26    27    1
    17     2     3   ar
    18     3     4   ar
    19     4     7    1
    20     7     8    1
    21     8     9    2
    22     9    10    1
    23    10    11    2
    24    11    12    1
    25    12    13    2
    26     4     5   ar
    27     5     6   ar
    28     6    14    1
    29    14    15    1
    30    14    16    1
    31    14    17    1
    32     6     1   ar
    33    27    22    1
    34    12     7    1
    35    28    29    1
@<TRIPOS>MOLECULE
*****
 33 35 0 0 0
SMALL
GASTEIGER

@<TRIPOS>ATOM
      1 C          65.4668   92.1599   12.8309 C.ar    1  UNL1        0.1307
      2 C          64.5616   91.2412   13.5967 C.ar    1  UNL1        0.0126
      3 C          63.5056   90.4565   12.8762 C.ar    1  UNL1       -0.0047
      4 C          63.3548   90.5905   11.3899 C.ar    1  UNL1       -0.0102
      5 C          64.2600   91.5092   10.6240 C.ar    1  UNL1       -0.0048
      6 C          65.3160   92.2939   11.3445 C.ar    1  UNL1        0.0106
      7 C          62.2988   89.8058   10.6694 C.3     1  UNL1        0.1227
      8 C          61.4288   90.4791    9.6498 C.2     1  UNL1       -0.0115
      9 C          60.3728   89.6944    8.9293 C.2     1  UNL1        0.0141
     10 C          60.1869   88.2363    9.2284 C.2     1  UNL1        0.0883
     11 N          61.0569   87.5630   10.2479 N.am    1  UNL1       -0.1774
     12 C          62.1129   88.3477   10.9684 C.2     1  UNL1        0.2533
     13 O          62.9830   87.6743   11.9881 O.2     1  UNL1       -0.2723
     14 C          66.2212   93.2127   10.5786 C.3     1  UNL1        0.0218
     15 C          67.1865   92.0845   10.3662 C.3     1  UNL1        0.0045
     16 C          65.2558   94.3409   10.7910 C.3     1  UNL1        0.0045
     17 C          67.1263   94.1314    9.8127 C.3     1  UNL1        0.0045
     18 C          67.7952   92.2745   13.9776 C.3     1  UNL1        0.2524
     19 O          66.5228   92.9446   13.5514 O.3     1  UNL1       -0.4721
     20 C          64.7124   91.1071   15.0831 C.3     1  UNL1        0.0467
     21 C          63.6579   90.4017   15.8834 C.3     1  UNL1        0.0769
     22 N          63.6585   88.9041   15.9698 N.3     1  UNL1       -0.2723
     23 C          64.3616   88.0927   14.9224 C.3     1  UNL1        0.0735
     24 C          64.3621   86.5952   15.0089 C.3     1  UNL1        0.0348
     25 C          63.6595   85.9092   16.1428 C.3     1  UNL1        0.0779
     26 C          62.9563   86.7207   17.1902 C.3     1  UNL1        0.0348
     27 C          62.9558   88.2181   17.1037 C.3     1  UNL1        0.0735
     28 N          63.6600   84.4116   16.2293 N.3     1  UNL1       -0.1845
     29 H          63.1569   84.1657   17.0818 H       1  UNL1        0.1484
     30 S          63.0605   83.5963   15.1222 S.O2    1  UNL1        0.0426
     31 C          62.4610   82.7809   14.0151 C.3     1  UNL1        0.1957
     32 O          64.2751   82.7162   15.1126 O.2     1  UNL1       -0.1575
     33 O          61.8459   84.4763   15.1317 O.2     1  UNL1       -0.1575
@<TRIPOS>BOND
     1    18    19    1
     2    19     1    1
     3     1     2   ar
     4     2    20    1
     5    20    21    1
     6    21    22    1
     7    22    23    1
     8    23    24    1
     9    24    25    1
    10    25    28    1
    11    28    30    1
    12    30    31    1
    13    30    32    2
    14    30    33    2
    15    25    26    1
    16    26    27    1
    17     2     3   ar
    18     3     4   ar
    19     4     7    1
    20     7     8    1
    21     8     9    2
    22     9    10    1
    23    10    11    2
    24    11    12    1
    25    12    13    2
    26     4     5   ar
    27     5     6   ar
    28     6    14    1
    29    14    15    1
    30    14    16    1
    31    14    17    1
    32     6     1   ar
    33    27    22    1
    34    12     7    1
    35    28    29    1
@<TRIPOS>MOLECULE
*****
 33 35 0 0 0
SMALL
GASTEIGER

@<TRIPOS>ATOM
      1 C          65.2697   91.4143   14.0023 C.ar    1  UNL1        0.1307
      2 C          64.3631   91.4409   12.8076 C.ar    1  UNL1        0.0126
      3 C          64.6740   92.3428   11.6501 C.ar    1  UNL1       -0.0047
      4 C          65.8915   93.2182   11.6873 C.ar    1  UNL1       -0.0102
      5 C          66.7980   93.1917   12.8821 C.ar    1  UNL1       -0.0048
      6 C          66.4871   92.2897   14.0396 C.ar    1  UNL1        0.0106
      7 C          66.2024   94.1202   10.5298 C.3     1  UNL1        0.1227
      8 C          65.5488   95.4667   10.4316 C.2     1  UNL1       -0.0115
      9 C          65.8597   96.3686    9.2741 C.2     1  UNL1        0.0141
     10 C          66.8242   95.9241    8.2148 C.2     1  UNL1        0.0883
     11 N          67.4778   94.5776    8.3131 N.am    1  UNL1       -0.1774
     12 C          67.1669   93.6756    9.4706 C.2     1  UNL1        0.2533
     13 O          67.8205   92.3291    9.5688 O.2     1  UNL1       -0.2723
     14 C          67.3937   92.2632   15.2343 C.3     1  UNL1        0.0218
     15 C          68.4549   91.5916   14.4141 C.3     1  UNL1        0.0045
     16 C          66.3326   92.9348   16.0546 C.3     1  UNL1        0.0045
     17 C          68.3003   92.2367   16.4290 C.3     1  UNL1        0.0045
     18 C          63.7937   90.8151   16.0547 C.3     1  UNL1        0.2524
     19 O          64.9587   90.5124   15.1599 O.3     1  UNL1       -0.4721
     20 C          63.1456   90.5654   12.7704 C.3     1  UNL1        0.0467
     21 C          63.1417   89.3213   11.9324 C.3     1  UNL1        0.0769
     22 N          63.3627   87.9838   12.5747 N.3     1  UNL1       -0.2723
     23 C          64.1106   87.8888   13.8714 C.3     1  UNL1        0.0735
     24 C          64.3315   86.5514   14.5135 C.3     1  UNL1        0.0348
     25 C          63.8044   85.3089   13.8589 C.3     1  UNL1        0.0779
     26 C          63.0565   85.4039   12.5622 C.3     1  UNL1        0.0348
     27 C          62.8356   86.7413   11.9201 C.3     1  UNL1        0.0735
     28 N          64.0254   83.9714   14.5011 N.3     1  UNL1       -0.1845
     29 H          64.1667   84.1426   15.4967 H       1  UNL1        0.1484
     30 S          62.9777   82.9038   14.3898 S.O2    1  UNL1        0.0426
     31 C          61.9300   81.8361   14.2785 C.3     1  UNL1        0.1957
     32 O          63.8520   82.1453   13.4357 O.2     1  UNL1       -0.1575
     33 O          62.1034   83.6622   15.3439 O.2     1  UNL1       -0.1575
@<TRIPOS>BOND
     1    18    19    1
     2    19     1    1
     3     1     2   ar
     4     2    20    1
     5    20    21    1
     6    21    22    1
     7    22    23    1
     8    23    24    1
     9    24    25    1
    10    25    28    1
    11    28    30    1
    12    30    31    1
    13    30    32    2
    14    30    33    2
    15    25    26    1
    16    26    27    1
    17     2     3   ar
    18     3     4   ar
    19     4     7    1
    20     7     8    1
    21     8     9    2
    22     9    10    1
    23    10    11    2
    24    11    12    1
    25    12    13    2
    26     4     5   ar
    27     5     6   ar
    28     6    14    1
    29    14    15    1
    30    14    16    1
    31    14    17    1
    32     6     1   ar
    33    27    22    1
    34    12     7    1
    35    28    29    1
@<TRIPOS>MOLECULE
*****
 33 35 0 0 0
SMALL
GASTEIGER

@<TRIPOS>ATOM
      1 C          61.9288   87.7187   10.0069 C.ar    1  UNL1        0.1307
      2 C          62.3912   88.1352   11.3717 C.ar    1  UNL1        0.0126
      3 C          62.8033   87.0973   12.3731 C.ar    1  UNL1       -0.0047
      4 C          62.7531   85.6428   12.0098 C.ar    1  UNL1       -0.0102
      5 C          62.2908   85.2263   10.6450 C.ar    1  UNL1       -0.0048
      6 C          61.8786   86.2643    9.6436 C.ar    1  UNL1        0.0106
      7 C          63.1652   84.6049   13.0112 C.3     1  UNL1        0.1227
      8 C          62.9550   83.1500   12.7132 C.2     1  UNL1       -0.0115
      9 C          63.3671   82.1121   13.7146 C.2     1  UNL1        0.0141
     10 C          63.9895   82.5291   15.0141 C.2     1  UNL1        0.0883
     11 N          64.1998   83.9840   15.3121 N.am    1  UNL1       -0.1774
     12 C          63.7876   85.0219   14.3107 C.2     1  UNL1        0.2533
     13 O          63.9979   86.4770   14.6088 O.2     1  UNL1       -0.2723
     14 C          61.4162   85.8477    8.2787 C.3     1  UNL1        0.0218
     15 C          62.8103   85.4095    7.9402 C.3     1  UNL1        0.0045
     16 C          60.0222   86.2859    8.6172 C.3     1  UNL1        0.0045
     17 C          60.9539   85.4311    6.9139 C.3     1  UNL1        0.0045
     18 C          60.2059   89.4693    9.1602 C.3     1  UNL1        0.2524
     19 O          61.5167   88.7566    9.0055 O.3     1  UNL1       -0.4721
     20 C          62.4414   89.5897   11.7351 C.3     1  UNL1        0.0467
     21 C          63.4847   90.0884   12.6904 C.3     1  UNL1        0.0769
     22 N          64.3481   91.2564   12.3154 N.3     1  UNL1       -0.2723
     23 C          64.3161   91.7937   10.9153 C.3     1  UNL1        0.0735
     24 C          65.1794   92.9616   10.5403 C.3     1  UNL1        0.0348
     25 C          66.0747   93.5922   11.5654 C.3     1  UNL1        0.0779
     26 C          66.1066   93.0549   12.9655 C.3     1  UNL1        0.0348
     27 C          65.2433   91.8870   13.3405 C.3     1  UNL1        0.0735
     28 N          66.9380   94.7602   11.1903 N.3     1  UNL1       -0.1845
     29 H          67.8588   94.5872   11.5936 H       1  UNL1        0.1484
     30 S          67.1549   95.0991    9.7453 S.O2    1  UNL1        0.0426
     31 C          67.3718   95.4380    8.3004 C.3     1  UNL1        0.1957
     32 O          68.2758   94.1044    9.6803 O.2     1  UNL1       -0.1575
     33 O          66.0341   96.0937    9.8104 O.2     1  UNL1       -0.1575
@<TRIPOS>BOND
     1    18    19    1
     2    19     1    1
     3     1     2   ar
     4     2    20    1
     5    20    21    1
     6    21    22    1
     7    22    23    1
     8    23    24    1
     9    24    25    1
    10    25    28    1
    11    28    30    1
    12    30    31    1
    13    30    32    2
    14    30    33    2
    15    25    26    1
    16    26    27    1
    17     2     3   ar
    18     3     4   ar
    19     4     7    1
    20     7     8    1
    21     8     9    2
    22     9    10    1
    23    10    11    2
    24    11    12    1
    25    12    13    2
    26     4     5   ar
    27     5     6   ar
    28     6    14    1
    29    14    15    1
    30    14    16    1
    31    14    17    1
    32     6     1   ar
    33    27    22    1
    34    12     7    1
    35    28    29    1
@<TRIPOS>MOLECULE
*****
 33 35 0 0 0
SMALL
GASTEIGER

@<TRIPOS>ATOM
      1 C          61.6018   87.9569   10.2028 C.ar    1  UNL1        0.1307
      2 C          62.2957   88.2033   11.5096 C.ar    1  UNL1        0.0126
      3 C          62.7714   87.0454   12.3361 C.ar    1  UNL1       -0.0047
      4 C          62.5531   85.6413   11.8559 C.ar    1  UNL1       -0.0102
      5 C          61.8592   85.3950   10.5491 C.ar    1  UNL1       -0.0048
      6 C          61.3835   86.5528    9.7226 C.ar    1  UNL1        0.0106
      7 C          63.0288   84.4835   12.6825 C.3     1  UNL1        0.1227
      8 C          62.6365   84.3817   14.1267 C.2     1  UNL1       -0.0115
      9 C          63.1122   83.2238   14.9532 C.2     1  UNL1        0.0141
     10 C          63.9801   82.1678   14.3356 C.2     1  UNL1        0.0883
     11 N          64.3723   82.2696   12.8914 N.am    1  UNL1       -0.1774
     12 C          63.8967   83.4274   12.0648 C.2     1  UNL1        0.2533
     13 O          64.2889   83.5292   10.6206 O.2     1  UNL1       -0.2723
     14 C          60.6895   86.3064    8.4157 C.3     1  UNL1        0.0218
     15 C          61.9546   85.7298    7.8527 C.3     1  UNL1        0.0045
     16 C          59.4244   86.8829    8.9788 C.3     1  UNL1        0.0045
     17 C          59.9956   86.0600    7.1089 C.3     1  UNL1        0.0045
     18 C          60.0987   90.0581    9.9279 C.3     1  UNL1        0.2524
     19 O          61.1261   89.1148    9.3763 O.3     1  UNL1       -0.4721
     20 C          62.5140   89.6075   11.9899 C.3     1  UNL1        0.0467
     21 C          63.7652   89.9578   12.7394 C.3     1  UNL1        0.0769
     22 N          64.5438   91.1847   12.3672 N.3     1  UNL1       -0.2723
     23 C          64.4347   91.7508   10.9824 C.3     1  UNL1        0.0735
     24 C          65.2133   92.9777   10.6103 C.3     1  UNL1        0.0348
     25 C          66.1011   93.6384   11.6229 C.3     1  UNL1        0.0779
     26 C          66.2102   93.0723   13.0076 C.3     1  UNL1        0.0348
     27 C          65.4316   91.8454   13.3798 C.3     1  UNL1        0.0735
     28 N          66.8797   94.8653   11.2506 N.3     1  UNL1       -0.1845
     29 H          67.8119   94.7547   11.6496 H       1  UNL1        0.1484
     30 S          67.0666   95.2256    9.8066 S.O2    1  UNL1        0.0426
     31 C          67.2535   95.5859    8.3626 C.3     1  UNL1        0.1957
     32 O          65.9420   96.2130    9.9074 O.2     1  UNL1       -0.1575
     33 O          68.1912   94.2382    9.7058 O.2     1  UNL1       -0.1575
@<TRIPOS>BOND
     1    18    19    1
     2    19     1    1
     3     1     2   ar
     4     2    20    1
     5    20    21    1
     6    21    22    1
     7    22    23    1
     8    23    24    1
     9    24    25    1
    10    25    28    1
    11    28    30    1
    12    30    31    1
    13    30    32    2
    14    30    33    2
    15    25    26    1
    16    26    27    1
    17     2     3   ar
    18     3     4   ar
    19     4     7    1
    20     7     8    1
    21     8     9    2
    22     9    10    1
    23    10    11    2
    24    11    12    1
    25    12    13    2
    26     4     5   ar
    27     5     6   ar
    28     6    14    1
    29    14    15    1
    30    14    16    1
    31    14    17    1
    32     6     1   ar
    33    27    22    1
    34    12     7    1
    35    28    29    1
@<TRIPOS>MOLECULE
*****
 33 35 0 0 0
SMALL
GASTEIGER

@<TRIPOS>ATOM
      1 C          65.3184   91.9282   12.8031 C.ar    1  UNL1        0.1307
      2 C          64.1695   91.0862   12.3332 C.ar    1  UNL1        0.0126
      3 C          63.7490   89.8827   13.1237 C.ar    1  UNL1       -0.0047
      4 C          64.4774   89.5213   14.3841 C.ar    1  UNL1       -0.0102
      5 C          65.6264   90.3633   14.8540 C.ar    1  UNL1       -0.0048
      6 C          66.0469   91.5668   14.0635 C.ar    1  UNL1        0.0106
      7 C          64.0569   88.3178   15.1745 C.3     1  UNL1        0.1227
      8 C          64.4957   86.9487   14.7468 C.2     1  UNL1       -0.0115
      9 C          64.0752   85.7453   15.5373 C.2     1  UNL1        0.0141
     10 C          63.2159   85.9109   16.7555 C.2     1  UNL1        0.0883
     11 N          62.7771   87.2800   17.1832 N.am    1  UNL1       -0.1774
     12 C          63.1976   88.4835   16.3928 C.2     1  UNL1        0.2533
     13 O          62.7588   89.8526   16.8206 O.2     1  UNL1       -0.2723
     14 C          67.1959   92.4088   14.5335 C.3     1  UNL1        0.0218
     15 C          68.1053   91.7054   13.5701 C.3     1  UNL1        0.0045
     16 C          66.2865   93.1122   15.4968 C.3     1  UNL1        0.0045
     17 C          68.3449   93.2507   15.0034 C.3     1  UNL1        0.0045
     18 C          66.5426   92.9613   10.7576 C.3     1  UNL1        0.2524
     19 O          65.7389   93.1317   12.0126 O.3     1  UNL1       -0.4721
     20 C          63.4409   91.4476   11.0727 C.3     1  UNL1        0.0467
     21 C          62.0187   91.0128   10.8775 C.3     1  UNL1        0.0769
     22 N          61.7201   89.6526   10.3200 N.3     1  UNL1       -0.2723
     23 C          62.4277   88.4471   10.8641 C.3     1  UNL1        0.0735
     24 C          62.1290   87.0870   10.3067 C.3     1  UNL1        0.0348
     25 C          61.1228   86.9323    9.2051 C.3     1  UNL1        0.0779
     26 C          60.4152   88.1378    8.6609 C.3     1  UNL1        0.0348
     27 C          60.7138   89.4979    9.2184 C.3     1  UNL1        0.0735
     28 N          60.8241   85.5721    8.6476 N.3     1  UNL1       -0.1845
     29 H          59.8238   85.5482    8.4495 H       1  UNL1        0.1484
     30 S          61.5227   85.1001    7.4070 S.O2    1  UNL1        0.0426
     31 C          62.2212   84.6281    6.1663 C.3     1  UNL1        0.1957
     32 O          62.8382   85.1596    8.1250 O.2     1  UNL1       -0.1575
     33 O          60.2071   85.0406    6.6889 O.2     1  UNL1       -0.1575
@<TRIPOS>BOND
     1    18    19    1
     2    19     1    1
     3     1     2   ar
     4     2    20    1
     5    20    21    1
     6    21    22    1
     7    22    23    1
     8    23    24    1
     9    24    25    1
    10    25    28    1
    11    28    30    1
    12    30    31    1
    13    30    32    2
    14    30    33    2
    15    25    26    1
    16    26    27    1
    17     2     3   ar
    18     3     4   ar
    19     4     7    1
    20     7     8    1
    21     8     9    2
    22     9    10    1
    23    10    11    2
    24    11    12    1
    25    12    13    2
    26     4     5   ar
    27     5     6   ar
    28     6    14    1
    29    14    15    1
    30    14    16    1
    31    14    17    1
    32     6     1   ar
    33    27    22    1
    34    12     7    1
    35    28    29    1
@<TRIPOS>MOLECULE
*****
 33 35 0 0 0
SMALL
GASTEIGER

@<TRIPOS>ATOM
      1 C          61.8546   87.8241    9.7127 C.ar    1  UNL1        0.1307
      2 C          62.2602   88.4208   11.0277 C.ar    1  UNL1        0.0126
      3 C          62.7411   87.5335   12.1375 C.ar    1  UNL1       -0.0047
      4 C          62.8163   86.0495   11.9322 C.ar    1  UNL1       -0.0102
      5 C          62.4106   85.4529   10.6171 C.ar    1  UNL1       -0.0048
      6 C          61.9298   86.3402    9.5074 C.ar    1  UNL1        0.0106
      7 C          63.2972   85.1623   13.0419 C.3     1  UNL1        0.1227
      8 C          63.9699   85.7599   14.2420 C.2     1  UNL1       -0.0115
      9 C          64.4507   84.8726   15.3517 C.2     1  UNL1        0.0141
     10 C          64.2589   83.3877   15.2613 C.2     1  UNL1        0.0883
     11 N          63.5862   82.7901   14.0612 N.am    1  UNL1       -0.1774
     12 C          63.1054   83.6774   12.9515 C.2     1  UNL1        0.2533
     13 O          62.4326   83.0796   11.7514 O.2     1  UNL1       -0.2723
     14 C          61.5241   85.7434    8.1923 C.3     1  UNL1        0.0218
     15 C          62.9412   85.3163    7.9490 C.3     1  UNL1        0.0045
     16 C          60.1069   86.1705    8.4356 C.3     1  UNL1        0.0045
     17 C          61.1184   85.1467    6.8773 C.3     1  UNL1        0.0045
     18 C          59.9816   89.2688    8.6381 C.3     1  UNL1        0.2524
     19 O          61.3737   88.7114    8.6030 O.3     1  UNL1       -0.4721
     20 C          62.1851   89.9048   11.2331 C.3     1  UNL1        0.0467
     21 C          63.2145   90.8011   10.6112 C.3     1  UNL1        0.0769
     22 N          64.1992   91.5274   11.4790 N.3     1  UNL1       -0.2723
     23 C          65.0249   92.6410   10.9064 C.3     1  UNL1        0.0735
     24 C          66.0095   93.3673   11.7742 C.3     1  UNL1        0.0348
     25 C          66.1684   92.9799   13.2146 C.3     1  UNL1        0.0779
     26 C          65.3426   91.8663   13.7872 C.3     1  UNL1        0.0348
     27 C          64.3580   91.1400   12.9194 C.3     1  UNL1        0.0735
     28 N          67.1530   93.7062   14.0824 N.3     1  UNL1       -0.1845
     29 H          66.6262   94.4094   14.6006 H       1  UNL1        0.1484
     30 S          67.9687   92.9485   15.0876 S.O2    1  UNL1        0.0426
     31 C          68.7844   92.1907   16.0927 C.3     1  UNL1        0.1957
     32 O          68.8535   92.4416   13.9875 O.2     1  UNL1       -0.1575
     33 O          67.0839   93.4553   16.1876 O.2     1  UNL1       -0.1575
@<TRIPOS>BOND
     1    18    19    1
     2    19     1    1
     3     1     2   ar
     4     2    20    1
     5    20    21    1
     6    21    22    1
     7    22    23    1
     8    23    24    1
     9    24    25    1
    10    25    28    1
    11    28    30    1
    12    30    31    1
    13    30    32    2
    14    30    33    2
    15    25    26    1
    16    26    27    1
    17     2     3   ar
    18     3     4   ar
    19     4     7    1
    20     7     8    1
    21     8     9    2
    22     9    10    1
    23    10    11    2
    24    11    12    1
    25    12    13    2
    26     4     5   ar
    27     5     6   ar
    28     6    14    1
    29    14    15    1
    30    14    16    1
    31    14    17    1
    32     6     1   ar
    33    27    22    1
    34    12     7    1
    35    28    29    1
@<TRIPOS>MOLECULE
*****
 33 35 0 0 0
SMALL
GASTEIGER

@<TRIPOS>ATOM
      1 C          63.7115   83.8693   12.9417 C.ar    1  UNL1        0.1307
      2 C          63.6005   85.2760   13.4503 C.ar    1  UNL1        0.0126
      3 C          62.9051   86.3188   12.6262 C.ar    1  UNL1       -0.0047
      4 C          62.3209   85.9548   11.2934 C.ar    1  UNL1       -0.0102
      5 C          62.4320   84.5481   10.7849 C.ar    1  UNL1       -0.0048
      6 C          63.1273   83.5053   11.6090 C.ar    1  UNL1        0.0106
      7 C          61.6256   86.9976   10.4693 C.3     1  UNL1        0.1227
      8 C          60.7991   86.5900    9.2858 C.2     1  UNL1       -0.0115
      9 C          60.1038   87.6327    8.4617 C.2     1  UNL1        0.0141
     10 C          60.2350   89.0831    8.8210 C.2     1  UNL1        0.0883
     11 N          61.0615   89.4907   10.0046 N.am    1  UNL1       -0.1774
     12 C          61.7568   88.4479   10.8287 C.2     1  UNL1        0.2533
     13 O          62.5833   88.8556   12.0122 O.2     1  UNL1       -0.2723
     14 C          63.2384   82.0985   11.1004 C.3     1  UNL1        0.0218
     15 C          64.3380   82.5211   10.1718 C.3     1  UNL1        0.0045
     16 C          62.1388   81.6759   12.0289 C.3     1  UNL1        0.0045
     17 C          63.3495   80.6918   10.5917 C.3     1  UNL1        0.0045
     18 C          63.6608   82.1072   14.8502 C.3     1  UNL1        0.2524
     19 O          64.4069   82.8265   13.7658 O.3     1  UNL1       -0.4721
     20 C          64.1847   85.6401   14.7831 C.3     1  UNL1        0.0467
     21 C          63.4668   86.6064   15.6779 C.3     1  UNL1        0.0769
     22 N          63.7956   88.0688   15.6197 N.3     1  UNL1       -0.2723
     23 C          64.6364   88.6044   14.4990 C.3     1  UNL1        0.0735
     24 C          64.9651   90.0668   14.4408 C.3     1  UNL1        0.0348
     25 C          64.4530   90.9935   15.5034 C.3     1  UNL1        0.0779
     26 C          63.6122   90.4578   16.6241 C.3     1  UNL1        0.0348
     27 C          63.2835   88.9955   16.6823 C.3     1  UNL1        0.0735
     28 N          64.7817   92.4559   15.4451 N.3     1  UNL1       -0.1845
     29 H          64.4617   92.8648   16.3230 H       1  UNL1        0.1484
     30 S          66.2022   92.8983   15.2539 S.O2    1  UNL1        0.0426
     31 C          67.6226   93.3406   15.0626 C.3     1  UNL1        0.1957
     32 O          66.5123   92.5150   16.6705 O.2     1  UNL1       -0.1575
     33 O          65.8921   93.2816   13.8373 O.2     1  UNL1       -0.1575
@<TRIPOS>BOND
     1    18    19    1
     2    19     1    1
     3     1     2   ar
     4     2    20    1
     5    20    21    1
     6    21    22    1
     7    22    23    1
     8    23    24    1
     9    24    25    1
    10    25    28    1
    11    28    30    1
    12    30    31    1
    13    30    32    2
    14    30    33    2
    15    25    26    1
    16    26    27    1
    17     2     3   ar
    18     3     4   ar
    19     4     7    1
    20     7     8    1
    21     8     9    2
    22     9    10    1
    23    10    11    2
    24    11    12    1
    25    12    13    2
    26     4     5   ar
    27     5     6   ar
    28     6    14    1
    29    14    15    1
    30    14    16    1
    31    14    17    1
    32     6     1   ar
    33    27    22    1
    34    12     7    1
    35    28    29    1
