@<TRIPOS>MOLECULE
*****
 27 30 0 0 0
SMALL
GASTEIGER

@<TRIPOS>ATOM
      1 C          65.5428   92.5957   12.8105 C.3     1  UNL1        0.0506
      2 N          62.3654   89.3859   10.2409 N.pl3   1  UNL1       -0.3441
      3 C          62.8846   89.9391   11.5350 C.ar    1  UNL1        0.1035
      4 C          63.9540   90.9908   11.5257 C.ar    1  UNL1        0.0296
      5 C          64.4733   91.5439   12.8198 C.ar    1  UNL1        0.0071
      6 C          63.9229   91.0453   14.1231 C.ar    1  UNL1        0.1365
      7 N          64.2364   91.4002   15.5464 N.ar    1  UNL1       -0.1258
      8 N          63.3606   90.5678   16.4352 N.ar    1  UNL1       -0.0406
      9 N          62.5059   89.6984   15.5613 N.ar    1  UNL1       -0.1095
     10 C          62.8535   89.9935   14.1323 C.ar    1  UNL1        0.1838
     11 N          62.3343   89.4404   12.8382 N.ar    1  UNL1       -0.3249
     12 H          62.7266   89.7132    9.3855 H       1  UNL1        0.1437
     13 H          61.6635   88.6957   10.2470 H       1  UNL1        0.1437
     14 H          61.6324   88.7502   12.8443 H       1  UNL1        0.1686
     15 C          66.5902   92.6097   13.8842 C.ar    1  UNL1       -0.0180
     16 C          66.8782   93.8762   14.6344 C.ar    1  UNL1       -0.0039
     17 C          67.9256   93.8902   15.7081 C.ar    1  UNL1       -0.0003
     18 C          68.6849   92.6377   16.0315 C.ar    1  UNL1       -0.0000
     19 C          68.3969   91.3711   15.2813 C.ar    1  UNL1       -0.0003
     20 C          67.3495   91.3571   14.2076 C.ar    1  UNL1       -0.0039
     21 C          65.5648   93.6333   11.7276 C.3     1  UNL1        0.0351
     22 C          66.5512   93.5227   10.6029 C.ar    1  UNL1       -0.0215
     23 C          67.3998   92.2933   10.4679 C.ar    1  UNL1       -0.0042
     24 C          68.3862   92.1827    9.3432 C.ar    1  UNL1       -0.0003
     25 C          68.5239   93.3016    8.3536 C.ar    1  UNL1       -0.0000
     26 C          67.6753   94.5310    8.4887 C.ar    1  UNL1       -0.0003
     27 C          66.6889   94.6415    9.6134 C.ar    1  UNL1       -0.0042
@<TRIPOS>BOND
     1     2     3    1
     2     3     4   ar
     3     4     5   ar
     4     5     1    1
     5     1    21    1
     6    21    22    1
     7    22    23   ar
     8    23    24   ar
     9    24    25   ar
    10    25    26   ar
    11    26    27   ar
    12     1    15    1
    13    15    16   ar
    14    16    17   ar
    15    17    18   ar
    16    18    19   ar
    17    19    20   ar
    18     5     6   ar
    19     6     7   ar
    20     7     8   ar
    21     8     9   ar
    22     9    10   ar
    23    10    11   ar
    24    11     3   ar
    25    27    22   ar
    26    20    15   ar
    27    10     6    1
    28     2    12    1
    29     2    13    1
    30    11    14    1
@<TRIPOS>MOLECULE
*****
 27 30 0 0 0
SMALL
GASTEIGER

@<TRIPOS>ATOM
      1 C          63.9723   90.4742   13.7269 C.3     1  UNL1        0.0506
      2 N          68.4596   91.9008   15.9246 N.pl3   1  UNL1       -0.3441
      3 C          67.5084   91.9464   14.7656 C.ar    1  UNL1        0.1035
      4 C          66.2160   91.1875   14.8257 C.ar    1  UNL1        0.0296
      5 C          65.2648   91.2331   13.6667 C.ar    1  UNL1        0.0071
      6 C          65.6061   92.0377   12.4477 C.ar    1  UNL1        0.1365
      7 N          64.8718   92.2700   11.1605 N.ar    1  UNL1       -0.1258
      8 N          65.7104   93.1725   10.3049 N.ar    1  UNL1       -0.0406
      9 N          66.9630   93.4980   11.0632 N.ar    1  UNL1       -0.1095
     10 C          66.8985   92.7966   12.3876 C.ar    1  UNL1        0.1838
     11 N          67.8497   92.7510   13.5465 N.ar    1  UNL1       -0.3249
     12 H          68.2356   91.3727   16.7247 H       1  UNL1        0.1437
     13 H          69.3079   92.3989   15.8851 H       1  UNL1        0.1437
     14 H          68.6980   93.2490   13.5071 H       1  UNL1        0.1686
     15 C          63.8282   89.3117   14.6639 C.ar    1  UNL1       -0.0180
     16 C          64.3236   87.9554   14.2580 C.ar    1  UNL1       -0.0039
     17 C          64.1794   86.7929   15.1949 C.ar    1  UNL1       -0.0003
     18 C          63.5399   86.9869   16.5378 C.ar    1  UNL1       -0.0000
     19 C          63.0445   88.3432   16.9438 C.ar    1  UNL1       -0.0003
     20 C          63.1886   89.5057   16.0068 C.ar    1  UNL1       -0.0039
     21 C          62.8241   90.8777   12.8502 C.3     1  UNL1        0.0351
     22 C          62.0778   89.8390   12.0665 C.ar    1  UNL1       -0.0215
     23 C          60.5915   89.7077   12.2204 C.ar    1  UNL1       -0.0042
     24 C          59.8452   88.6690   11.4367 C.ar    1  UNL1       -0.0003
     25 C          60.5852   87.7615   10.4991 C.ar    1  UNL1       -0.0000
     26 C          62.0715   87.8929   10.3452 C.ar    1  UNL1       -0.0003
     27 C          62.8177   88.9316   11.1289 C.ar    1  UNL1       -0.0042
@<TRIPOS>BOND
     1     2     3    1
     2     3     4   ar
     3     4     5   ar
     4     5     1    1
     5     1    21    1
     6    21    22    1
     7    22    23   ar
     8    23    24   ar
     9    24    25   ar
    10    25    26   ar
    11    26    27   ar
    12     1    15    1
    13    15    16   ar
    14    16    17   ar
    15    17    18   ar
    16    18    19   ar
    17    19    20   ar
    18     5     6   ar
    19     6     7   ar
    20     7     8   ar
    21     8     9   ar
    22     9    10   ar
    23    10    11   ar
    24    11     3   ar
    25    27    22   ar
    26    20    15   ar
    27    10     6    1
    28     2    12    1
    29     2    13    1
    30    11    14    1
@<TRIPOS>MOLECULE
*****
 27 30 0 0 0
SMALL
GASTEIGER

@<TRIPOS>ATOM
      1 C          62.1781   86.6153   11.1091 C.3     1  UNL1        0.0506
      2 N          62.7556   91.5434    9.5662 N.pl3   1  UNL1       -0.3441
      3 C          62.9667   90.4704   10.5929 C.ar    1  UNL1        0.1035
      4 C          62.4669   89.0794   10.3377 C.ar    1  UNL1        0.0296
      5 C          62.6780   88.0064   11.3644 C.ar    1  UNL1        0.0071
      6 C          63.3891   88.3244   12.6463 C.ar    1  UNL1        0.1365
      7 N          63.7410   87.4800   13.8350 N.ar    1  UNL1       -0.1258
      8 N          64.4584   88.3492   14.8249 N.ar    1  UNL1       -0.0406
      9 N          64.5498   89.7308   14.2479 N.ar    1  UNL1       -0.1095
     10 C          63.8890   89.7155   12.9014 C.ar    1  UNL1        0.1838
     11 N          63.6778   90.7885   11.8747 N.ar    1  UNL1       -0.3249
     12 H          62.2889   91.3347    8.7248 H       1  UNL1        0.1437
     13 H          63.0837   92.4564    9.7337 H       1  UNL1        0.1437
     14 H          64.0059   91.7015   12.0422 H       1  UNL1        0.1686
     15 C          61.9248   86.1555    9.7040 C.ar    1  UNL1       -0.0180
     16 C          63.0184   85.4867    8.9251 C.ar    1  UNL1       -0.0039
     17 C          62.7650   85.0269    7.5200 C.ar    1  UNL1       -0.0003
     18 C          61.4181   85.2359    6.8938 C.ar    1  UNL1       -0.0000
     19 C          60.3245   85.9047    7.6727 C.ar    1  UNL1       -0.0003
     20 C          60.5779   86.3645    9.0778 C.ar    1  UNL1       -0.0039
     21 C          61.9315   85.6842   12.2590 C.3     1  UNL1        0.0351
     22 C          62.7252   84.4173   12.3815 C.ar    1  UNL1       -0.0215
     23 C          63.8074   84.3071   13.4143 C.ar    1  UNL1       -0.0042
     24 C          64.6011   83.0402   13.5368 C.ar    1  UNL1       -0.0003
     25 C          64.3125   81.8834   12.6265 C.ar    1  UNL1       -0.0000
     26 C          63.2303   81.9935   11.5937 C.ar    1  UNL1       -0.0003
     27 C          62.4367   83.2605   11.4712 C.ar    1  UNL1       -0.0042
@<TRIPOS>BOND
     1     2     3    1
     2     3     4   ar
     3     4     5   ar
     4     5     1    1
     5     1    21    1
     6    21    22    1
     7    22    23   ar
     8    23    24   ar
     9    24    25   ar
    10    25    26   ar
    11    26    27   ar
    12     1    15    1
    13    15    16   ar
    14    16    17   ar
    15    17    18   ar
    16    18    19   ar
    17    19    20   ar
    18     5     6   ar
    19     6     7   ar
    20     7     8   ar
    21     8     9   ar
    22     9    10   ar
    23    10    11   ar
    24    11     3   ar
    25    27    22   ar
    26    20    15   ar
    27    10     6    1
    28     2    12    1
    29     2    13    1
    30    11    14    1
@<TRIPOS>MOLECULE
*****
 27 30 0 0 0
SMALL
GASTEIGER

@<TRIPOS>ATOM
      1 C          63.7750   90.7009   13.2311 C.3     1  UNL1        0.0506
      2 N          65.8981   93.7940    9.6358 N.pl3   1  UNL1       -0.3441
      3 C          65.9700   93.1143   10.9711 C.ar    1  UNL1        0.1035
      4 C          64.8366   92.2475   11.4334 C.ar    1  UNL1        0.0296
      5 C          64.9085   91.5678   12.7687 C.ar    1  UNL1        0.0071
      6 C          66.1140   91.7550   13.6415 C.ar    1  UNL1        0.1365
      7 N          66.4651   91.2166   14.9968 N.ar    1  UNL1       -0.1258
      8 N          67.8156   91.7508   15.3721 N.ar    1  UNL1       -0.0406
      9 N          68.2991   92.6192   14.2487 N.ar    1  UNL1       -0.1095
     10 C          67.2474   92.6218   13.1791 C.ar    1  UNL1        0.1838
     11 N          67.1755   93.3015   11.8439 N.ar    1  UNL1       -0.3249
     12 H          65.1069   93.6712    9.0629 H       1  UNL1        0.1437
     13 H          66.6420   94.3630    9.3323 H       1  UNL1        0.1437
     14 H          67.9194   93.8704   11.5404 H       1  UNL1        0.1686
     15 C          62.8818   90.0354   12.2264 C.ar    1  UNL1       -0.0180
     16 C          63.0947   88.5933   11.8728 C.ar    1  UNL1       -0.0039
     17 C          62.2015   87.9278   10.8681 C.ar    1  UNL1       -0.0003
     18 C          61.0955   88.7042   10.2172 C.ar    1  UNL1       -0.0000
     19 C          60.8826   90.1463   10.5709 C.ar    1  UNL1       -0.0003
     20 C          61.7757   90.8119   11.5755 C.ar    1  UNL1       -0.0039
     21 C          63.5347   90.4997   14.6979 C.3     1  UNL1        0.0351
     22 C          63.5968   89.1211   15.2858 C.ar    1  UNL1       -0.0215
     23 C          62.8959   88.8248   16.5785 C.ar    1  UNL1       -0.0042
     24 C          62.9580   87.4462   17.1664 C.ar    1  UNL1       -0.0003
     25 C          63.7211   86.3639   16.4616 C.ar    1  UNL1       -0.0000
     26 C          64.4220   86.6603   15.1690 C.ar    1  UNL1       -0.0003
     27 C          64.3598   88.0389   14.5811 C.ar    1  UNL1       -0.0042
@<TRIPOS>BOND
     1     2     3    1
     2     3     4   ar
     3     4     5   ar
     4     5     1    1
     5     1    21    1
     6    21    22    1
     7    22    23   ar
     8    23    24   ar
     9    24    25   ar
    10    25    26   ar
    11    26    27   ar
    12     1    15    1
    13    15    16   ar
    14    16    17   ar
    15    17    18   ar
    16    18    19   ar
    17    19    20   ar
    18     5     6   ar
    19     6     7   ar
    20     7     8   ar
    21     8     9   ar
    22     9    10   ar
    23    10    11   ar
    24    11     3   ar
    25    27    22   ar
    26    20    15   ar
    27    10     6    1
    28     2    12    1
    29     2    13    1
    30    11    14    1
@<TRIPOS>MOLECULE
*****
 27 30 0 0 0
SMALL
GASTEIGER

@<TRIPOS>ATOM
      1 C          64.7979   91.4253   14.2583 C.3     1  UNL1        0.0506
      2 N          62.0329   90.3327    9.9966 N.pl3   1  UNL1       -0.3441
      3 C          63.1244   91.1075   10.6738 C.ar    1  UNL1        0.1035
      4 C          63.4154   90.8790   12.1274 C.ar    1  UNL1        0.0296
      5 C          64.5069   91.6537   12.8046 C.ar    1  UNL1        0.0071
      6 C          65.3073   92.6569   12.0281 C.ar    1  UNL1        0.1365
      7 N          66.4361   93.5625   12.4227 N.ar    1  UNL1       -0.1258
      8 N          66.8427   94.3506   11.2130 N.ar    1  UNL1       -0.0406
      9 N          65.9652   93.9321   10.0706 N.ar    1  UNL1       -0.1095
     10 C          65.0163   92.8853   10.5744 C.ar    1  UNL1        0.1838
     11 N          63.9248   92.1106    9.8973 N.ar    1  UNL1       -0.3249
     12 H          61.5075   89.6743   10.5062 H       1  UNL1        0.1437
     13 H          61.8419   90.4827    9.0425 H       1  UNL1        0.1437
     14 H          63.7338   92.2605    8.9432 H       1  UNL1        0.1686
     15 C          66.1414   91.7852   14.8198 C.ar    1  UNL1       -0.0180
     16 C          67.3878   91.2303   14.1965 C.ar    1  UNL1       -0.0039
     17 C          68.7314   91.5902   14.7579 C.ar    1  UNL1       -0.0003
     18 C          68.8286   92.5050   15.9427 C.ar    1  UNL1       -0.0000
     19 C          67.5821   93.0599   16.5661 C.ar    1  UNL1       -0.0003
     20 C          66.2386   92.7000   16.0046 C.ar    1  UNL1       -0.0039
     21 C          63.7453   90.8369   15.1504 C.3     1  UNL1        0.0351
     22 C          63.7562   89.3683   15.4557 C.ar    1  UNL1       -0.0215
     23 C          64.4257   88.4116   14.5142 C.ar    1  UNL1       -0.0042
     24 C          64.4366   86.9430   14.8195 C.ar    1  UNL1       -0.0003
     25 C          63.7781   86.4312   16.0663 C.ar    1  UNL1       -0.0000
     26 C          63.1086   87.3880   17.0078 C.ar    1  UNL1       -0.0003
     27 C          63.0977   88.8565   16.7024 C.ar    1  UNL1       -0.0042
@<TRIPOS>BOND
     1     2     3    1
     2     3     4   ar
     3     4     5   ar
     4     5     1    1
     5     1    21    1
     6    21    22    1
     7    22    23   ar
     8    23    24   ar
     9    24    25   ar
    10    25    26   ar
    11    26    27   ar
    12     1    15    1
    13    15    16   ar
    14    16    17   ar
    15    17    18   ar
    16    18    19   ar
    17    19    20   ar
    18     5     6   ar
    19     6     7   ar
    20     7     8   ar
    21     8     9   ar
    22     9    10   ar
    23    10    11   ar
    24    11     3   ar
    25    27    22   ar
    26    20    15   ar
    27    10     6    1
    28     2    12    1
    29     2    13    1
    30    11    14    1
@<TRIPOS>MOLECULE
*****
 27 30 0 0 0
SMALL
GASTEIGER

@<TRIPOS>ATOM
      1 C          64.5899   91.1808   14.3364 C.3     1  UNL1        0.0506
      2 N          65.6373   93.4874    9.7995 N.pl3   1  UNL1       -0.3441
      3 C          64.7944   92.5559   10.6192 C.ar    1  UNL1        0.1035
      4 C          65.1135   92.3341   12.0679 C.ar    1  UNL1        0.0296
      5 C          64.2706   91.4026   12.8876 C.ar    1  UNL1        0.0071
      6 C          63.1086   90.6928   12.2585 C.ar    1  UNL1        0.1365
      7 N          62.1063   89.7231   12.8108 N.ar    1  UNL1       -0.1258
      8 N          61.1677   89.3456   11.7033 N.ar    1  UNL1       -0.0406
      9 N          61.5898   90.0820   10.4666 N.ar    1  UNL1       -0.1095
     10 C          62.7894   90.9147   10.8097 C.ar    1  UNL1        0.1838
     11 N          63.6323   91.8462    9.9901 N.ar    1  UNL1       -0.3249
     12 H          66.4000   93.9533   10.2124 H       1  UNL1        0.1437
     13 H          65.4277   93.6330    8.8487 H       1  UNL1        0.1437
     14 H          63.4228   91.9918    9.0392 H       1  UNL1        0.1686
     15 C          65.9171   91.6122   14.8865 C.ar    1  UNL1       -0.0180
     16 C          65.9757   92.4974   16.0960 C.ar    1  UNL1       -0.0039
     17 C          67.3028   92.9288   16.6461 C.ar    1  UNL1       -0.0003
     18 C          68.5713   92.4751   15.9865 C.ar    1  UNL1       -0.0000
     19 C          68.5127   91.5900   14.7769 C.ar    1  UNL1       -0.0003
     20 C          67.1856   91.1585   14.2269 C.ar    1  UNL1       -0.0039
     21 C          63.5820   90.5277   15.2351 C.3     1  UNL1        0.0351
     22 C          63.6820   89.0609   15.5329 C.ar    1  UNL1       -0.0215
     23 C          63.0391   88.5007   16.7669 C.ar    1  UNL1       -0.0042
     24 C          63.1391   87.0339   17.0647 C.ar    1  UNL1       -0.0003
     25 C          63.8819   86.1274   16.1284 C.ar    1  UNL1       -0.0000
     26 C          64.5247   86.6877   14.8943 C.ar    1  UNL1       -0.0003
     27 C          64.4247   88.1545   14.5966 C.ar    1  UNL1       -0.0042
@<TRIPOS>BOND
     1     2     3    1
     2     3     4   ar
     3     4     5   ar
     4     5     1    1
     5     1    21    1
     6    21    22    1
     7    22    23   ar
     8    23    24   ar
     9    24    25   ar
    10    25    26   ar
    11    26    27   ar
    12     1    15    1
    13    15    16   ar
    14    16    17   ar
    15    17    18   ar
    16    18    19   ar
    17    19    20   ar
    18     5     6   ar
    19     6     7   ar
    20     7     8   ar
    21     8     9   ar
    22     9    10   ar
    23    10    11   ar
    24    11     3   ar
    25    27    22   ar
    26    20    15   ar
    27    10     6    1
    28     2    12    1
    29     2    13    1
    30    11    14    1
@<TRIPOS>MOLECULE
*****
 27 30 0 0 0
SMALL
GASTEIGER

@<TRIPOS>ATOM
      1 C          62.0060   86.0812   11.1553 C.3     1  UNL1        0.0506
      2 N          63.0734   81.1329   12.3287 N.pl3   1  UNL1       -0.3441
      3 C          63.2090   82.5970   12.6261 C.ar    1  UNL1        0.1035
      4 C          62.5397   83.6070   11.7421 C.ar    1  UNL1        0.0296
      5 C          62.6754   85.0711   12.0395 C.ar    1  UNL1        0.0071
      6 C          63.4805   85.5248   13.2210 C.ar    1  UNL1        0.1365
      7 N          63.7902   86.8900   13.7598 N.ar    1  UNL1       -0.1258
      8 N          64.6510   86.7235   14.9769 N.ar    1  UNL1       -0.0406
      9 N          64.8733   85.2555   15.1903 N.ar    1  UNL1       -0.1095
     10 C          64.1498   84.5146   14.1050 C.ar    1  UNL1        0.1838
     11 N          64.0141   83.0507   13.8076 N.ar    1  UNL1       -0.3249
     12 H          62.5450   80.8351   11.5532 H       1  UNL1        0.1437
     13 H          63.5127   80.4700   12.9089 H       1  UNL1        0.1437
     14 H          64.4534   82.3877   14.3878 H       1  UNL1        0.1686
     15 C          61.8475   85.8065    9.6893 C.ar    1  UNL1       -0.0180
     16 C          62.9831   85.2116    8.9106 C.ar    1  UNL1       -0.0039
     17 C          62.8246   84.9370    7.4445 C.ar    1  UNL1       -0.0003
     18 C          61.5304   85.2573    6.7571 C.ar    1  UNL1       -0.0000
     19 C          60.3948   85.8522    7.5358 C.ar    1  UNL1       -0.0003
     20 C          60.5533   86.1268    9.0018 C.ar    1  UNL1       -0.0039
     21 C          61.4952   87.3658   11.7373 C.3     1  UNL1        0.0351
     22 C          62.1528   88.6654   11.3786 C.ar    1  UNL1       -0.0215
     23 C          63.0340   89.3600   12.3741 C.ar    1  UNL1       -0.0042
     24 C          63.6916   90.6596   12.0153 C.ar    1  UNL1       -0.0003
     25 C          63.4679   91.2646   10.6610 C.ar    1  UNL1       -0.0000
     26 C          62.5866   90.5701    9.6656 C.ar    1  UNL1       -0.0003
     27 C          61.9291   89.2704   10.0244 C.ar    1  UNL1       -0.0042
@<TRIPOS>BOND
     1     2     3    1
     2     3     4   ar
     3     4     5   ar
     4     5     1    1
     5     1    21    1
     6    21    22    1
     7    22    23   ar
     8    23    24   ar
     9    24    25   ar
    10    25    26   ar
    11    26    27   ar
    12     1    15    1
    13    15    16   ar
    14    16    17   ar
    15    17    18   ar
    16    18    19   ar
    17    19    20   ar
    18     5     6   ar
    19     6     7   ar
    20     7     8   ar
    21     8     9   ar
    22     9    10   ar
    23    10    11   ar
    24    11     3   ar
    25    27    22   ar
    26    20    15   ar
    27    10     6    1
    28     2    12    1
    29     2    13    1
    30    11    14    1
@<TRIPOS>MOLECULE
*****
 27 30 0 0 0
SMALL
GASTEIGER

@<TRIPOS>ATOM
      1 C          65.5933   92.2270   12.9187 C.3     1  UNL1        0.0506
      2 N          63.9688   87.7829   15.0663 N.pl3   1  UNL1       -0.3441
      3 C          63.9067   88.7868   13.9534 C.ar    1  UNL1        0.1035
      4 C          64.7810   90.0049   13.9925 C.ar    1  UNL1        0.0296
      5 C          64.7189   91.0088   12.8796 C.ar    1  UNL1        0.0071
      6 C          63.7824   90.7944   11.7276 C.ar    1  UNL1        0.1365
      7 N          63.5042   91.6043   10.4961 N.ar    1  UNL1       -0.1258
      8 N          62.4580   90.8867    9.6959 N.ar    1  UNL1       -0.0406
      9 N          62.0895   89.6332   10.4329 N.ar    1  UNL1       -0.1095
     10 C          62.9080   89.5762   11.6886 C.ar    1  UNL1        0.1838
     11 N          62.9702   88.5724   12.8015 N.ar    1  UNL1       -0.3249
     12 H          64.5835   87.9236   15.8224 H       1  UNL1        0.1437
     13 H          63.3949   86.9834   15.0406 H       1  UNL1        0.1437
     14 H          62.3963   87.7728   12.7758 H       1  UNL1        0.1686
     15 C          66.6498   92.3582   13.9754 C.ar    1  UNL1       -0.0180
     16 C          66.2879   92.8695   15.3383 C.ar    1  UNL1       -0.0039
     17 C          67.3444   93.0007   16.3950 C.ar    1  UNL1       -0.0003
     18 C          68.7627   92.6205   16.0888 C.ar    1  UNL1       -0.0000
     19 C          69.1246   92.1091   14.7259 C.ar    1  UNL1       -0.0003
     20 C          68.0681   91.9779   13.6692 C.ar    1  UNL1       -0.0039
     21 C          65.4111   93.3139   11.9012 C.3     1  UNL1        0.0351
     22 C          66.4120   93.4826   10.7967 C.ar    1  UNL1       -0.0215
     23 C          66.6039   94.8258   10.1572 C.ar    1  UNL1       -0.0042
     24 C          67.6048   94.9945    9.0527 C.ar    1  UNL1       -0.0003
     25 C          68.4137   93.8199    8.5878 C.ar    1  UNL1       -0.0000
     26 C          68.2218   92.4767    9.2273 C.ar    1  UNL1       -0.0003
     27 C          67.2209   92.3081   10.3318 C.ar    1  UNL1       -0.0042
@<TRIPOS>BOND
     1     2     3    1
     2     3     4   ar
     3     4     5   ar
     4     5     1    1
     5     1    21    1
     6    21    22    1
     7    22    23   ar
     8    23    24   ar
     9    24    25   ar
    10    25    26   ar
    11    26    27   ar
    12     1    15    1
    13    15    16   ar
    14    16    17   ar
    15    17    18   ar
    16    18    19   ar
    17    19    20   ar
    18     5     6   ar
    19     6     7   ar
    20     7     8   ar
    21     8     9   ar
    22     9    10   ar
    23    10    11   ar
    24    11     3   ar
    25    27    22   ar
    26    20    15   ar
    27    10     6    1
    28     2    12    1
    29     2    13    1
    30    11    14    1
@<TRIPOS>MOLECULE
*****
 27 30 0 0 0
SMALL
GASTEIGER

@<TRIPOS>ATOM
      1 C          64.3022   90.7464   14.5176 C.3     1  UNL1        0.0506
      2 N          65.4778   93.0929   10.0329 N.pl3   1  UNL1       -0.3441
      3 C          64.5673   92.2163   10.8407 C.ar    1  UNL1        0.1035
      4 C          64.8899   91.9197   12.2752 C.ar    1  UNL1        0.0296
      5 C          63.9795   91.0430   13.0830 C.ar    1  UNL1        0.0071
      6 C          62.7463   90.4629   12.4562 C.ar    1  UNL1        0.1365
      7 N          61.6690   89.5714   12.9990 N.ar    1  UNL1       -0.1258
      8 N          60.6805   89.3170   11.8998 N.ar    1  UNL1       -0.0406
      9 N          61.1469   90.0513   10.6778 N.ar    1  UNL1       -0.1095
     10 C          62.4237   90.7596   11.0217 C.ar    1  UNL1        0.1838
     11 N          63.3341   91.6362   10.2139 N.ar    1  UNL1       -0.3249
     12 H          66.2871   93.4737   10.4442 H       1  UNL1        0.1437
     13 H          65.2659   93.2876    9.0913 H       1  UNL1        0.1437
     14 H          63.1224   91.8309    9.2724 H       1  UNL1        0.1686
     15 C          64.0282   89.3838   15.0817 C.ar    1  UNL1       -0.0180
     16 C          64.5350   88.1629   14.3728 C.ar    1  UNL1       -0.0039
     17 C          64.2610   86.8003   14.9369 C.ar    1  UNL1       -0.0003
     18 C          63.4803   86.6586   16.2099 C.ar    1  UNL1       -0.0000
     19 C          62.9736   87.8795   16.9188 C.ar    1  UNL1       -0.0003
     20 C          63.2476   89.2421   16.3547 C.ar    1  UNL1       -0.0039
     21 C          64.8989   91.8124   15.3879 C.3     1  UNL1        0.0351
     22 C          66.3609   92.1320   15.2866 C.ar    1  UNL1       -0.0215
     23 C          66.9832   93.1081   16.2406 C.ar    1  UNL1       -0.0042
     24 C          68.4453   93.4277   16.1392 C.ar    1  UNL1       -0.0003
     25 C          69.2851   92.7712   15.0838 C.ar    1  UNL1       -0.0000
     26 C          68.6628   91.7952   14.1297 C.ar    1  UNL1       -0.0003
     27 C          67.2007   91.4756   14.2312 C.ar    1  UNL1       -0.0042
@<TRIPOS>BOND
     1     2     3    1
     2     3     4   ar
     3     4     5   ar
     4     5     1    1
     5     1    21    1
     6    21    22    1
     7    22    23   ar
     8    23    24   ar
     9    24    25   ar
    10    25    26   ar
    11    26    27   ar
    12     1    15    1
    13    15    16   ar
    14    16    17   ar
    15    17    18   ar
    16    18    19   ar
    17    19    20   ar
    18     5     6   ar
    19     6     7   ar
    20     7     8   ar
    21     8     9   ar
    22     9    10   ar
    23    10    11   ar
    24    11     3   ar
    25    27    22   ar
    26    20    15   ar
    27    10     6    1
    28     2    12    1
    29     2    13    1
    30    11    14    1
