@<TRIPOS>MOLECULE
*****
 28 31 0 0 0
SMALL
GASTEIGER

@<TRIPOS>ATOM
      1 C          63.8897   89.8009   13.5638 C.ar    1  UNL1        0.1385
      2 C          63.1943   89.4733   12.2757 C.ar    1  UNL1        0.0384
      3 C          62.9228   88.0435   11.9126 C.ar    1  UNL1        0.0203
      4 C          63.3466   86.9413   12.8375 C.ar    1  UNL1        0.0602
      5 C          64.0419   87.2689   14.1256 C.ar    1  UNL1        0.0204
      6 C          64.3135   88.6987   14.4887 C.ar    1  UNL1        0.0384
      7 C          64.3404   85.9798   14.8320 C.ar    1  UNL1        0.0234
      8 C          63.8295   84.8555   13.9806 C.ar    1  UNL1        0.1143
      9 N          63.2153   85.4497   12.7479 N.ar    1  UNL1       -0.3219
     10 C          62.6158   84.5559   11.7031 C.3     1  UNL1        0.1276
     11 C          62.6305   83.0678   11.8910 C.3     1  UNL1        0.1183
     12 N          63.2447   82.4735   13.1237 N.am    1  UNL1       -0.2703
     13 C          63.8442   83.3674   14.1685 C.2     1  UNL1        0.2650
     14 O          64.4584   82.7731   15.4013 O.2     1  UNL1       -0.2683
     15 O          64.1613   91.2307   13.9270 O.3     1  UNL1       -0.4791
     16 N          66.3379   93.9108   11.0409 N.3     1  UNL1       -0.2737
     17 C          66.6368   93.9895   12.5087 C.3     1  UNL1        0.0758
     18 C          65.9112   93.0961   13.4708 C.3     1  UNL1        0.0609
     19 C          64.8868   92.1241   12.9650 C.3     1  UNL1        0.1687
     20 C          64.5880   92.0455   11.4971 C.3     1  UNL1        0.0609
     21 C          65.3135   92.9389   10.5351 C.3     1  UNL1        0.0758
     22 C          67.9648   94.2101    9.0376 C.3     1  UNL1        0.0173
     23 C          67.0635   94.8042   10.0790 C.3     1  UNL1        0.0576
     24 C          66.8877   96.2918   10.1584 C.3     1  UNL1        0.0173
     25 C          63.2595   80.9854   13.3117 C.3     1  UNL1        0.1255
     26 C          62.0428   80.2839   13.8386 C.3     1  UNL1        0.1586
     27 O          60.9567   81.0696   14.5116 O.3     1  UNL1       -0.3802
     28 H          61.2961   81.4485   15.3375 H       1  UNL1        0.2105
@<TRIPOS>BOND
     1    22    23    1
     2    23    24    1
     3    23    16    1
     4    16    17    1
     5    17    18    1
     6    18    19    1
     7    19    15    1
     8    15     1    1
     9     1     2   ar
    10     2     3   ar
    11     3     4   ar
    12     4     5   ar
    13     5     6   ar
    14     5     7   ar
    15     7     8   ar
    16     8     9   ar
    17     9    10    1
    18    10    11    1
    19    11    12    1
    20    12    25    1
    21    25    26    1
    22    26    27    1
    23    12    13   am
    24    13    14    2
    25    19    20    1
    26    20    21    1
    27    21    16    1
    28     6     1   ar
    29    13     8    1
    30     9     4   ar
    31    27    28    1
@<TRIPOS>MOLECULE
*****
 28 31 0 0 0
SMALL
GASTEIGER

@<TRIPOS>ATOM
      1 C          63.7527   89.7260   13.7651 C.ar    1  UNL1        0.1385
      2 C          64.1729   89.2118   15.1101 C.ar    1  UNL1        0.0384
      3 C          64.2021   87.7353   15.3729 C.ar    1  UNL1        0.0203
      4 C          63.8112   86.7730   14.2907 C.ar    1  UNL1        0.0602
      5 C          63.3910   87.2872   12.9457 C.ar    1  UNL1        0.0204
      6 C          63.3618   88.7637   12.6829 C.ar    1  UNL1        0.0384
      7 C          63.0626   86.1069   12.0802 C.ar    1  UNL1        0.0234
      8 C          63.2798   84.8633   12.8902 C.ar    1  UNL1        0.1143
      9 N          63.7425   85.2749   14.2564 N.ar    1  UNL1       -0.3219
     10 C          64.0414   84.2325   15.2927 C.3     1  UNL1        0.1276
     11 C          63.8777   82.7784   14.9628 C.3     1  UNL1        0.1183
     12 N          63.4150   82.3668   13.5966 N.am    1  UNL1       -0.2703
     13 C          63.1161   83.4093   12.5603 C.2     1  UNL1        0.2650
     14 O          62.6534   82.9976   11.1940 O.2     1  UNL1       -0.2683
     15 O          63.7234   91.2025   13.5023 O.3     1  UNL1       -0.4791
     16 N          66.6856   93.0406   10.6568 N.3     1  UNL1       -0.2737
     17 C          65.3403   92.6022   10.1591 C.3     1  UNL1        0.0758
     18 C          64.3528   91.9894   11.1076 C.3     1  UNL1        0.0609
     19 C          64.7108   91.8152   12.5538 C.3     1  UNL1        0.1687
     20 C          66.0562   92.2536   13.0515 C.3     1  UNL1        0.0609
     21 C          67.0436   92.8663   12.1030 C.3     1  UNL1        0.0758
     22 C          67.5769   95.1098    9.3631 C.3     1  UNL1        0.0173
     23 C          67.6730   93.6532    9.7083 C.3     1  UNL1        0.0576
     24 C          68.7565   92.8093    9.1050 C.3     1  UNL1        0.0173
     25 C          63.2513   80.9127   13.2667 C.3     1  UNL1        0.1255
     26 C          61.9343   80.2340   13.5013 C.3     1  UNL1        0.1586
     27 O          60.8422   80.9508   14.2385 O.3     1  UNL1       -0.3802
     28 H          61.1151   81.0979   15.1576 H       1  UNL1        0.2105
@<TRIPOS>BOND
     1    22    23    1
     2    23    24    1
     3    23    16    1
     4    16    17    1
     5    17    18    1
     6    18    19    1
     7    19    15    1
     8    15     1    1
     9     1     2   ar
    10     2     3   ar
    11     3     4   ar
    12     4     5   ar
    13     5     6   ar
    14     5     7   ar
    15     7     8   ar
    16     8     9   ar
    17     9    10    1
    18    10    11    1
    19    11    12    1
    20    12    25    1
    21    25    26    1
    22    26    27    1
    23    12    13   am
    24    13    14    2
    25    19    20    1
    26    20    21    1
    27    21    16    1
    28     6     1   ar
    29    13     8    1
    30     9     4   ar
    31    27    28    1
@<TRIPOS>MOLECULE
*****
 28 31 0 0 0
SMALL
GASTEIGER

@<TRIPOS>ATOM
      1 C          63.6023   89.8593   13.1379 C.ar    1  UNL1        0.1385
      2 C          62.9349   89.4096   11.8721 C.ar    1  UNL1        0.0384
      3 C          62.7351   87.9465   11.6085 C.ar    1  UNL1        0.0203
      4 C          63.2027   86.9332   12.6108 C.ar    1  UNL1        0.0602
      5 C          63.8700   87.3829   13.8766 C.ar    1  UNL1        0.0204
      6 C          64.0698   88.8459   14.1402 C.ar    1  UNL1        0.0384
      7 C          64.2233   86.1621   14.6733 C.ar    1  UNL1        0.0234
      8 C          63.7742   84.9578   13.8999 C.ar    1  UNL1        0.1143
      9 N          63.1435   85.4344   12.6252 N.ar    1  UNL1       -0.3219
     10 C          62.5967   84.4420   11.6422 C.3     1  UNL1        0.1276
     11 C          62.6807   82.9731   11.9340 C.3     1  UNL1        0.1183
     12 N          63.3114   82.4966   13.2088 N.am    1  UNL1       -0.2703
     13 C          63.8582   83.4889   14.1917 C.2     1  UNL1        0.2650
     14 O          64.4890   83.0123   15.4666 O.2     1  UNL1       -0.2683
     15 O          63.8021   91.3224   13.4016 O.3     1  UNL1       -0.4791
     16 N          67.6281   92.7686   15.2777 N.3     1  UNL1       -0.2737
     17 C          67.5947   92.4136   13.8208 C.3     1  UNL1        0.0758
     18 C          66.3193   91.9315   13.1953 C.3     1  UNL1        0.0609
     19 C          65.0774   91.8045   14.0269 C.3     1  UNL1        0.1687
     20 C          65.1109   92.1596   15.4840 C.3     1  UNL1        0.0609
     21 C          66.3862   92.6416   16.1093 C.3     1  UNL1        0.0758
     22 C          69.8713   92.2652   16.4879 C.3     1  UNL1        0.0173
     23 C          68.9034   93.2507   15.9031 C.3     1  UNL1        0.0576
     24 C          69.2109   94.7184   15.9437 C.3     1  UNL1        0.0173
     25 C          63.3954   81.0275   13.5006 C.3     1  UNL1        0.1255
     26 C          62.1726   80.1674   13.3780 C.3     1  UNL1        0.1586
     27 O          60.9219   80.5316   14.1215 O.3     1  UNL1       -0.3802
     28 H          61.0791   80.4552   15.0756 H       1  UNL1        0.2105
@<TRIPOS>BOND
     1    22    23    1
     2    23    24    1
     3    23    16    1
     4    16    17    1
     5    17    18    1
     6    18    19    1
     7    19    15    1
     8    15     1    1
     9     1     2   ar
    10     2     3   ar
    11     3     4   ar
    12     4     5   ar
    13     5     6   ar
    14     5     7   ar
    15     7     8   ar
    16     8     9   ar
    17     9    10    1
    18    10    11    1
    19    11    12    1
    20    12    25    1
    21    25    26    1
    22    26    27    1
    23    12    13   am
    24    13    14    2
    25    19    20    1
    26    20    21    1
    27    21    16    1
    28     6     1   ar
    29    13     8    1
    30     9     4   ar
    31    27    28    1
@<TRIPOS>MOLECULE
*****
 28 31 0 0 0
SMALL
GASTEIGER

@<TRIPOS>ATOM
      1 C          59.2561   88.9152    7.5198 C.ar    1  UNL1        0.1385
      2 C          59.2142   87.4300    7.3137 C.ar    1  UNL1        0.0384
      3 C          59.9756   86.5233    8.2346 C.ar    1  UNL1        0.0203
      4 C          60.7789   87.1018    9.3616 C.ar    1  UNL1        0.0602
      5 C          60.8209   88.5869    9.5676 C.ar    1  UNL1        0.0204
      6 C          60.0594   89.4936    8.6468 C.ar    1  UNL1        0.0384
      7 C          61.6930   88.8656   10.7558 C.ar    1  UNL1        0.0234
      8 C          62.1901   87.5526   11.2840 C.ar    1  UNL1        0.1143
      9 N          61.6252   86.4625   10.4224 N.ar    1  UNL1       -0.3219
     10 C          61.9544   85.0287   10.7150 C.3     1  UNL1        0.1276
     11 C          62.8484   84.6849   11.8693 C.3     1  UNL1        0.1183
     12 N          63.4133   85.7750   12.7310 N.am    1  UNL1       -0.2703
     13 C          63.0842   87.2089   12.4383 C.2     1  UNL1        0.2650
     14 O          63.6491   88.2991   13.3001 O.2     1  UNL1       -0.2683
     15 O          58.4947   89.8220    6.5989 O.3     1  UNL1       -0.4791
     16 N          60.6910   92.2655    3.5239 N.3     1  UNL1       -0.2737
     17 C          59.2323   92.5098    3.7737 C.3     1  UNL1        0.0758
     18 C          58.5002   91.6953    4.7987 C.3     1  UNL1        0.0609
     19 C          59.2268   90.6365    5.5739 C.3     1  UNL1        0.1687
     20 C          60.6855   90.3921    5.3241 C.3     1  UNL1        0.0609
     21 C          61.4176   91.2066    4.2991 C.3     1  UNL1        0.0758
     22 C          60.7318   94.2221    1.8152 C.3     1  UNL1        0.0173
     23 C          61.4231   93.0799    2.4990 C.3     1  UNL1        0.0576
     24 C          62.8466   92.7523    2.1577 C.3     1  UNL1        0.0173
     25 C          64.3075   85.4313   13.8853 C.3     1  UNL1        0.1255
     26 C          63.7656   85.4458   15.2840 C.3     1  UNL1        0.1586
     27 O          63.4753   86.7517   15.9623 O.3     1  UNL1       -0.3802
     28 H          64.3050   87.2336   16.1046 H       1  UNL1        0.2105
@<TRIPOS>BOND
     1    22    23    1
     2    23    24    1
     3    23    16    1
     4    16    17    1
     5    17    18    1
     6    18    19    1
     7    19    15    1
     8    15     1    1
     9     1     2   ar
    10     2     3   ar
    11     3     4   ar
    12     4     5   ar
    13     5     6   ar
    14     5     7   ar
    15     7     8   ar
    16     8     9   ar
    17     9    10    1
    18    10    11    1
    19    11    12    1
    20    12    25    1
    21    25    26    1
    22    26    27    1
    23    12    13   am
    24    13    14    2
    25    19    20    1
    26    20    21    1
    27    21    16    1
    28     6     1   ar
    29    13     8    1
    30     9     4   ar
    31    27    28    1
@<TRIPOS>MOLECULE
*****
 28 31 0 0 0
SMALL
GASTEIGER

@<TRIPOS>ATOM
      1 C          62.4369   88.8322   10.9980 C.ar    1  UNL1        0.1385
      2 C          62.6257   90.0027   10.0792 C.ar    1  UNL1        0.0384
      3 C          63.4891   91.1548   10.5001 C.ar    1  UNL1        0.0203
      4 C          64.1638   91.1363   11.8397 C.ar    1  UNL1        0.0602
      5 C          63.9749   89.9658   12.7584 C.ar    1  UNL1        0.0204
      6 C          63.1115   88.8137   12.3376 C.ar    1  UNL1        0.0384
      7 C          64.7611   90.2266   14.0090 C.ar    1  UNL1        0.0234
      8 C          65.4359   91.5583   13.8631 C.ar    1  UNL1        0.1143
      9 N          65.0667   92.1206   12.5224 N.ar    1  UNL1       -0.3219
     10 C          65.6003   93.4561   12.0965 C.3     1  UNL1        0.1276
     11 C          66.5032   94.2294   13.0113 C.3     1  UNL1        0.1183
     12 N          66.8724   93.6671   14.3520 N.am    1  UNL1       -0.2703
     13 C          66.3387   92.3315   14.7779 C.2     1  UNL1        0.2650
     14 O          66.7079   91.7692   16.1187 O.2     1  UNL1       -0.2683
     15 O          61.5734   87.6800   10.5771 O.3     1  UNL1       -0.4791
     16 N          63.0247   83.4577   11.1390 N.3     1  UNL1       -0.2737
     17 C          63.1200   84.1104    9.7919 C.3     1  UNL1        0.0758
     18 C          62.6362   85.5179    9.6045 C.3     1  UNL1        0.0609
     19 C          62.0572   86.2726   10.7644 C.3     1  UNL1        0.1687
     20 C          61.9620   85.6198   12.1116 C.3     1  UNL1        0.0609
     21 C          62.4457   84.2124   12.2989 C.3     1  UNL1        0.0758
     22 C          64.3135   81.6891   12.5393 C.3     1  UNL1        0.0173
     23 C          63.5085   82.0503   11.3263 C.3     1  UNL1        0.0576
     24 C          63.1873   81.0040   10.3005 C.3     1  UNL1        0.0173
     25 C          67.7753   94.4404   15.2668 C.3     1  UNL1        0.1255
     26 C          69.0627   93.8328   15.7395 C.3     1  UNL1        0.1586
     27 O          69.5032   92.5012   15.2079 O.3     1  UNL1       -0.3802
     28 H          68.8829   91.8151   15.5002 H       1  UNL1        0.2105
@<TRIPOS>BOND
     1    22    23    1
     2    23    24    1
     3    23    16    1
     4    16    17    1
     5    17    18    1
     6    18    19    1
     7    19    15    1
     8    15     1    1
     9     1     2   ar
    10     2     3   ar
    11     3     4   ar
    12     4     5   ar
    13     5     6   ar
    14     5     7   ar
    15     7     8   ar
    16     8     9   ar
    17     9    10    1
    18    10    11    1
    19    11    12    1
    20    12    25    1
    21    25    26    1
    22    26    27    1
    23    12    13   am
    24    13    14    2
    25    19    20    1
    26    20    21    1
    27    21    16    1
    28     6     1   ar
    29    13     8    1
    30     9     4   ar
    31    27    28    1
@<TRIPOS>MOLECULE
*****
 28 31 0 0 0
SMALL
GASTEIGER

@<TRIPOS>ATOM
      1 C          61.7524   89.3035   11.1053 C.ar    1  UNL1        0.1385
      2 C          62.2791   90.2729   10.0891 C.ar    1  UNL1        0.0384
      3 C          63.3361   91.2644   10.4758 C.ar    1  UNL1        0.0203
      4 C          63.8664   91.2865   11.8788 C.ar    1  UNL1        0.0602
      5 C          63.3397   90.3171   12.8950 C.ar    1  UNL1        0.0204
      6 C          62.2827   89.3256   12.5083 C.ar    1  UNL1        0.0384
      7 C          64.0485   90.5741   14.1917 C.ar    1  UNL1        0.0234
      8 C          65.0134   91.7024   13.9769 C.ar    1  UNL1        0.1143
      9 N          64.9008   92.1427   12.5475 N.ar    1  UNL1       -0.3219
     10 C          65.7547   93.2662   12.0394 C.3     1  UNL1        0.1276
     11 C          66.7212   93.9496   12.9607 C.3     1  UNL1        0.1183
     12 N          66.8338   93.5093   14.3902 N.am    1  UNL1       -0.2703
     13 C          65.9798   92.3856   14.8983 C.2     1  UNL1        0.2650
     14 O          66.0923   91.9453   16.3279 O.2     1  UNL1       -0.2683
     15 O          60.6953   88.3120   10.7186 O.3     1  UNL1       -0.4791
     16 N          61.4254   85.4555    7.3190 N.3     1  UNL1       -0.2737
     17 C          62.5089   85.7203    8.3219 C.3     1  UNL1        0.0758
     18 C          62.2655   86.6725    9.4552 C.3     1  UNL1        0.0609
     19 C          60.9387   87.3598    9.5854 C.3     1  UNL1        0.1687
     20 C          59.8552   87.0950    8.5824 C.3     1  UNL1        0.0609
     21 C          60.0985   86.1428    7.4493 C.3     1  UNL1        0.0758
     22 C          63.0101   84.4623    5.5156 C.3     1  UNL1        0.0173
     23 C          61.6688   84.5034    6.1858 C.3     1  UNL1        0.0576
     24 C          60.5709   83.5922    5.7228 C.3     1  UNL1        0.0173
     25 C          67.8003   94.1926   15.3117 C.3     1  UNL1        0.1255
     26 C          69.1030   93.5331   15.6552 C.3     1  UNL1        0.1586
     27 O          69.1404   92.0684   15.9759 O.3     1  UNL1       -0.3802
     28 H          68.6538   91.9051   16.7990 H       1  UNL1        0.2105
@<TRIPOS>BOND
     1    22    23    1
     2    23    24    1
     3    23    16    1
     4    16    17    1
     5    17    18    1
     6    18    19    1
     7    19    15    1
     8    15     1    1
     9     1     2   ar
    10     2     3   ar
    11     3     4   ar
    12     4     5   ar
    13     5     6   ar
    14     5     7   ar
    15     7     8   ar
    16     8     9   ar
    17     9    10    1
    18    10    11    1
    19    11    12    1
    20    12    25    1
    21    25    26    1
    22    26    27    1
    23    12    13   am
    24    13    14    2
    25    19    20    1
    26    20    21    1
    27    21    16    1
    28     6     1   ar
    29    13     8    1
    30     9     4   ar
    31    27    28    1
@<TRIPOS>MOLECULE
*****
 28 31 0 0 0
SMALL
GASTEIGER

@<TRIPOS>ATOM
      1 C          63.9524   89.5881   15.6346 C.ar    1  UNL1        0.1385
      2 C          63.2462   88.9457   16.7915 C.ar    1  UNL1        0.0384
      3 C          62.9937   87.4671   16.7886 C.ar    1  UNL1        0.0203
      4 C          63.4474   86.6310   15.6288 C.ar    1  UNL1        0.0602
      5 C          64.1535   87.2735   14.4719 C.ar    1  UNL1        0.0204
      6 C          64.4061   88.7521   14.4748 C.ar    1  UNL1        0.0384
      7 C          64.4822   86.2011   13.4760 C.ar    1  UNL1        0.0234
      8 C          63.9791   84.8957   14.0174 C.ar    1  UNL1        0.1143
      9 N          63.3395   85.1615   15.3479 N.ar    1  UNL1       -0.3219
     10 C          62.7417   84.0310   16.1317 C.3     1  UNL1        0.1276
     11 C          62.7833   82.6348   15.5851 C.3     1  UNL1        0.1183
     12 N          63.4229   82.3691   14.2546 N.am    1  UNL1       -0.2703
     13 C          64.0208   83.4996   13.4707 C.2     1  UNL1        0.2650
     14 O          64.6604   83.2338   12.1401 O.2     1  UNL1       -0.2683
     15 O          64.2049   91.0668   15.6374 O.3     1  UNL1       -0.4791
     16 N          66.1003   93.0325   12.0606 N.3     1  UNL1       -0.2737
     17 C          66.6916   93.2284   13.4251 C.3     1  UNL1        0.0758
     18 C          66.0598   92.5731   14.6175 C.3     1  UNL1        0.0609
     19 C          64.8367   91.7220   14.4452 C.3     1  UNL1        0.1687
     20 C          64.2454   91.5262   13.0806 C.3     1  UNL1        0.0609
     21 C          64.8772   92.1815   11.8883 C.3     1  UNL1        0.0758
     22 C          66.4812   95.1402   10.5901 C.3     1  UNL1        0.0173
     23 C          66.7321   93.6878   10.8684 C.3     1  UNL1        0.0576
     24 C          67.6148   92.8906    9.9544 C.3     1  UNL1        0.0173
     25 C          63.4646   80.9728   13.7079 C.3     1  UNL1        0.1255
     26 C          62.6772   80.6245   12.4796 C.3     1  UNL1        0.1586
     27 O          62.5175   81.6325   11.3803 O.3     1  UNL1       -0.3802
     28 H          61.9926   82.3819   11.7026 H       1  UNL1        0.2105
@<TRIPOS>BOND
     1    22    23    1
     2    23    24    1
     3    23    16    1
     4    16    17    1
     5    17    18    1
     6    18    19    1
     7    19    15    1
     8    15     1    1
     9     1     2   ar
    10     2     3   ar
    11     3     4   ar
    12     4     5   ar
    13     5     6   ar
    14     5     7   ar
    15     7     8   ar
    16     8     9   ar
    17     9    10    1
    18    10    11    1
    19    11    12    1
    20    12    25    1
    21    25    26    1
    22    26    27    1
    23    12    13   am
    24    13    14    2
    25    19    20    1
    26    20    21    1
    27    21    16    1
    28     6     1   ar
    29    13     8    1
    30     9     4   ar
    31    27    28    1
@<TRIPOS>MOLECULE
*****
 28 31 0 0 0
SMALL
GASTEIGER

@<TRIPOS>ATOM
      1 C          63.8969   87.9385   15.0195 C.ar    1  UNL1        0.1385
      2 C          63.8709   86.8598   16.0615 C.ar    1  UNL1        0.0384
      3 C          63.7280   85.4241   15.6512 C.ar    1  UNL1        0.0203
      4 C          63.6112   85.0672   14.1989 C.ar    1  UNL1        0.0602
      5 C          63.6372   86.1459   13.1570 C.ar    1  UNL1        0.0204
      6 C          63.7800   87.5815   13.5673 C.ar    1  UNL1        0.0384
      7 C          63.5026   85.4949   11.8124 C.ar    1  UNL1        0.0234
      8 C          63.3934   84.0137   12.0233 C.ar    1  UNL1        0.1143
      9 N          63.4606   83.7494   13.4983 N.ar    1  UNL1       -0.3219
     10 C          63.3758   82.3430   14.0127 C.3     1  UNL1        0.1276
     11 C          63.2240   81.2009   13.0522 C.3     1  UNL1        0.1183
     12 N          63.1569   81.4653   11.5773 N.am    1  UNL1       -0.2703
     13 C          63.2416   82.8717   11.0628 C.2     1  UNL1        0.2650
     14 O          63.1745   83.1361    9.5877 O.2     1  UNL1       -0.2683
     15 O          64.0397   89.3743   15.4298 O.3     1  UNL1       -0.4791
     16 N          65.7458   92.3791   12.5470 N.3     1  UNL1       -0.2737
     17 C          64.4232   91.7322   12.2607 C.3     1  UNL1        0.0758
     18 C          63.8544   90.7306   13.2216 C.3     1  UNL1        0.0609
     19 C          64.6084   90.3758   14.4689 C.3     1  UNL1        0.1687
     20 C          65.9311   91.0227   14.7552 C.3     1  UNL1        0.0609
     21 C          66.4998   92.0243   13.7943 C.3     1  UNL1        0.0758
     22 C          66.2387   94.8459   11.8978 C.3     1  UNL1        0.0173
     23 C          66.3145   93.3806   11.5861 C.3     1  UNL1        0.0576
     24 C          66.9591   92.9169   10.3135 C.3     1  UNL1        0.0173
     25 C          63.0051   80.3231   10.6167 C.3     1  UNL1        0.1255
     26 C          62.7157   78.9441   11.1310 C.3     1  UNL1        0.1586
     27 O          62.7245   77.7758   10.1903 O.3     1  UNL1       -0.3802
     28 H          61.9981   77.8675    9.5540 H       1  UNL1        0.2105
@<TRIPOS>BOND
     1    22    23    1
     2    23    24    1
     3    23    16    1
     4    16    17    1
     5    17    18    1
     6    18    19    1
     7    19    15    1
     8    15     1    1
     9     1     2   ar
    10     2     3   ar
    11     3     4   ar
    12     4     5   ar
    13     5     6   ar
    14     5     7   ar
    15     7     8   ar
    16     8     9   ar
    17     9    10    1
    18    10    11    1
    19    11    12    1
    20    12    25    1
    21    25    26    1
    22    26    27    1
    23    12    13   am
    24    13    14    2
    25    19    20    1
    26    20    21    1
    27    21    16    1
    28     6     1   ar
    29    13     8    1
    30     9     4   ar
    31    27    28    1
