@<TRIPOS>MOLECULE
*****
 33 38 0 0 0
SMALL
GASTEIGER

@<TRIPOS>ATOM
      1 N          63.4266   86.1421   13.4239 N.ar    1  UNL1       -0.3090
      2 C          62.5881   85.0317   12.8636 C.ar    1  UNL1        0.1154
      3 C          61.7940   85.5836   11.7171 C.ar    1  UNL1        0.0263
      4 C          62.1416   87.0353   11.5687 C.ar    1  UNL1        0.0532
      5 C          61.6697   88.0874   10.6093 C.ar    1  UNL1        0.0847
      6 C          62.2068   89.4846   10.7048 C.ar    1  UNL1        0.1304
      7 N          61.5597   90.3046    9.6284 N.ar    1  UNL1       -0.2211
      8 C          60.6226   89.4141    8.8676 C.ar    1  UNL1        0.1787
      9 N          60.6906   88.0438    9.4738 N.ar    1  UNL1       -0.3069
     10 C          59.9155   86.8410    9.0236 C.3     1  UNL1        0.1320
     11 C          63.2159   89.8298   11.7597 C.ar    1  UNL1        0.1541
     12 N          63.6877   88.7776   12.7190 N.ar    1  UNL1       -0.2118
     13 C          63.1506   87.3804   12.6235 C.ar    1  UNL1        0.1468
     14 C          62.5505   83.6175   13.3624 C.2     1  UNL1        0.2649
     15 O          61.9775   83.3144   14.7150 O.2     1  UNL1       -0.2683
     16 N          63.0859   82.5066   12.5085 N.am    1  UNL1       -0.2782
     17 C          63.0482   81.0924   13.0074 C.3     1  UNL1        0.0757
     18 C          62.4742   79.7080   12.9457 C.3     1  UNL1        0.0215
     19 C          63.5570   80.0276   13.9332 C.3     1  UNL1        0.0215
     20 C          63.6589   82.8097   11.1558 C.3     1  UNL1        0.0757
     21 C          64.7122   82.5863   10.1115 C.3     1  UNL1        0.0215
     22 C          63.5983   83.5582    9.8574 C.3     1  UNL1        0.0215
     23 C          63.8447   85.9995   15.9842 C.3     1  UNL1        0.0265
     24 C          64.3746   86.0334   14.5812 C.3     1  UNL1        0.1077
     25 N          63.7530   91.2271   11.8552 N.pl3   1  UNL1       -0.2807
     26 H          63.5381   91.8860   11.1560 H       1  UNL1        0.1551
     27 C          64.6177   91.6204   13.0160 C.ar    1  UNL1        0.1542
     28 C          66.0586   92.0311   12.9430 C.ar    1  UNL1        0.0505
     29 C          66.5247   92.3366   14.3356 C.ar    1  UNL1        0.0589
     30 C          67.9018   92.7852   14.7259 C.3     1  UNL1        0.0518
     31 N          65.3719   92.1148   15.2693 N.ar    1  UNL1       -0.2516
     32 C          65.3938   92.3026   16.7574 C.3     1  UNL1        0.1534
     33 N          64.1934   91.6722   14.4538 N.ar    1  UNL1       -0.1543
@<TRIPOS>BOND
     1    23    24    1
     2    24     1    1
     3     1     2   ar
     4     2    14    1
     5    14    15    2
     6    14    16   am
     7    16    17    1
     8    17    18    1
     9    18    19    1
    10    16    20    1
    11    20    21    1
    12    21    22    1
    13     2     3   ar
    14     3     4   ar
    15     4     5   ar
    16     5     6   ar
    17     6     7   ar
    18     7     8   ar
    19     8     9   ar
    20     9    10    1
    21     6    11   ar
    22    11    25    1
    23    25    27    1
    24    27    28   ar
    25    28    29   ar
    26    29    30    1
    27    29    31   ar
    28    31    32    1
    29    31    33   ar
    30    11    12   ar
    31    12    13   ar
    32    13     1   ar
    33    19    17    1
    34    22    20    1
    35    13     4   ar
    36     9     5   ar
    37    33    27   ar
    38    25    26    1
@<TRIPOS>MOLECULE
*****
 33 38 0 0 0
SMALL
GASTEIGER

@<TRIPOS>ATOM
      1 N          63.7258   86.4617   13.9262 N.ar    1  UNL1       -0.3090
      2 C          62.8745   85.5144   13.1340 C.ar    1  UNL1        0.1154
      3 C          62.2879   86.2724   11.9802 C.ar    1  UNL1        0.0263
      4 C          62.7767   87.6884   12.0594 C.ar    1  UNL1        0.0532
      5 C          62.5273   88.8862   11.1917 C.ar    1  UNL1        0.0847
      6 C          63.1667   90.2012   11.5267 C.ar    1  UNL1        0.1304
      7 N          62.7394   91.2010   10.4934 N.ar    1  UNL1       -0.2211
      8 C          61.8359   90.5040    9.5198 C.ar    1  UNL1        0.1787
      9 N          61.7048   89.0734    9.9514 N.ar    1  UNL1       -0.3069
     10 C          60.8937   88.0158    9.2633 C.3     1  UNL1        0.1320
     11 C          64.0554   90.3182   12.7294 C.ar    1  UNL1        0.1541
     12 N          64.3047   89.1202   13.5971 N.ar    1  UNL1       -0.2118
     13 C          63.6654   87.8054   13.2621 C.ar    1  UNL1        0.1468
     14 C          62.6493   84.0636   13.4415 C.2     1  UNL1        0.2649
     15 O          62.1260   83.6545   14.7864 O.2     1  UNL1       -0.2683
     16 N          62.9475   83.0220   12.4042 N.am    1  UNL1       -0.2782
     17 C          62.7223   81.5712   12.7119 C.3     1  UNL1        0.0757
     18 C          62.6794   80.1400   12.2651 C.3     1  UNL1        0.0215
     19 C          62.3751   80.4897   13.6917 C.3     1  UNL1        0.0215
     20 C          63.4708   83.4310   11.0593 C.3     1  UNL1        0.0757
     21 C          63.3543   84.2674    9.8196 C.3     1  UNL1        0.0215
     22 C          64.4936   83.3033    9.9696 C.3     1  UNL1        0.0215
     23 C          63.7956   86.0088   16.4836 C.3     1  UNL1        0.0265
     24 C          64.5015   86.1247   15.1651 C.3     1  UNL1        0.1077
     25 N          64.6948   91.6331   13.0645 N.pl3   1  UNL1       -0.2807
     26 H          64.5331   92.0497   13.9417 H       1  UNL1        0.1551
     27 C          65.5806   92.3131   12.0630 C.ar    1  UNL1        0.1542
     28 C          66.7463   91.6923   11.3519 C.ar    1  UNL1        0.0505
     29 C          67.3423   92.7290   10.4463 C.ar    1  UNL1        0.0589
     30 C          68.5276   92.5377    9.5470 C.3     1  UNL1        0.0518
     31 N          66.5450   93.9904   10.5977 N.ar    1  UNL1       -0.2516
     32 C          66.7929   95.2822    9.8766 C.3     1  UNL1        0.1534
     33 N          65.4562   93.7334   11.5970 N.ar    1  UNL1       -0.1543
@<TRIPOS>BOND
     1    23    24    1
     2    24     1    1
     3     1     2   ar
     4     2    14    1
     5    14    15    2
     6    14    16   am
     7    16    17    1
     8    17    18    1
     9    18    19    1
    10    16    20    1
    11    20    21    1
    12    21    22    1
    13     2     3   ar
    14     3     4   ar
    15     4     5   ar
    16     5     6   ar
    17     6     7   ar
    18     7     8   ar
    19     8     9   ar
    20     9    10    1
    21     6    11   ar
    22    11    25    1
    23    25    27    1
    24    27    28   ar
    25    28    29   ar
    26    29    30    1
    27    29    31   ar
    28    31    32    1
    29    31    33   ar
    30    11    12   ar
    31    12    13   ar
    32    13     1   ar
    33    19    17    1
    34    22    20    1
    35    13     4   ar
    36     9     5   ar
    37    33    27   ar
    38    25    26    1
@<TRIPOS>MOLECULE
*****
 33 38 0 0 0
SMALL
GASTEIGER

@<TRIPOS>ATOM
      1 N          63.4819   85.7597   12.7393 N.ar    1  UNL1       -0.3090
      2 C          62.7211   84.8025   11.8704 C.ar    1  UNL1        0.1154
      3 C          61.7956   85.6009   11.0010 C.ar    1  UNL1        0.0263
      4 C          61.9844   87.0516   11.3325 C.ar    1  UNL1        0.0532
      5 C          61.3419   88.2958   10.7948 C.ar    1  UNL1        0.0847
      6 C          61.7415   89.6383   11.3315 C.ar    1  UNL1        0.1304
      7 N          60.9401   90.6824   10.6123 N.ar    1  UNL1       -0.2211
      8 C          60.0450   89.9853    9.6310 C.ar    1  UNL1        0.1787
      9 N          60.2934   88.5103    9.7438 N.ar    1  UNL1       -0.3069
     10 C          59.6127   87.4380    8.9457 C.3     1  UNL1        0.1320
     11 C          62.7837   89.7365   12.4059 C.ar    1  UNL1        0.1541
     12 N          63.4262   88.4922   12.9435 N.ar    1  UNL1       -0.2118
     13 C          63.0265   87.1498   12.4068 C.ar    1  UNL1        0.1468
     14 C          62.8613   83.3091   11.8710 C.2     1  UNL1        0.2649
     15 O          63.2100   82.5881   10.6027 O.2     1  UNL1       -0.2683
     16 N          62.6529   82.5367   13.1398 N.am    1  UNL1       -0.2782
     17 C          62.7931   81.0432   13.1403 C.3     1  UNL1        0.0757
     18 C          63.1191   79.7693   13.8618 C.3     1  UNL1        0.0215
     19 C          62.7099   79.7305   12.4193 C.3     1  UNL1        0.0215
     20 C          62.3042   83.2577   14.4081 C.3     1  UNL1        0.0757
     21 C          61.4939   84.2897   15.1350 C.3     1  UNL1        0.0215
     22 C          62.5106   83.4745   15.8779 C.3     1  UNL1        0.0215
     23 C          64.6887   86.2334   14.9909 C.3     1  UNL1        0.0265
     24 C          64.5163   85.3916   13.7613 C.3     1  UNL1        0.1077
     25 N          63.1834   91.0790   12.9427 N.pl3   1  UNL1       -0.2807
     26 H          62.5245   91.6352   13.4177 H       1  UNL1        0.1551
     27 C          64.5870   91.5738   12.7557 C.ar    1  UNL1        0.1542
     28 C          65.6785   91.5392   13.7840 C.ar    1  UNL1        0.0505
     29 C          66.9115   92.1342   13.1713 C.ar    1  UNL1        0.0589
     30 C          68.2407   92.2982   13.8470 C.3     1  UNL1        0.0518
     31 N          66.5822   92.5366   11.7643 N.ar    1  UNL1       -0.2516
     32 C          67.5241   93.1735   10.7859 C.3     1  UNL1        0.1534
     33 N          65.1455   92.1902   11.5074 N.ar    1  UNL1       -0.1543
@<TRIPOS>BOND
     1    23    24    1
     2    24     1    1
     3     1     2   ar
     4     2    14    1
     5    14    15    2
     6    14    16   am
     7    16    17    1
     8    17    18    1
     9    18    19    1
    10    16    20    1
    11    20    21    1
    12    21    22    1
    13     2     3   ar
    14     3     4   ar
    15     4     5   ar
    16     5     6   ar
    17     6     7   ar
    18     7     8   ar
    19     8     9   ar
    20     9    10    1
    21     6    11   ar
    22    11    25    1
    23    25    27    1
    24    27    28   ar
    25    28    29   ar
    26    29    30    1
    27    29    31   ar
    28    31    32    1
    29    31    33   ar
    30    11    12   ar
    31    12    13   ar
    32    13     1   ar
    33    19    17    1
    34    22    20    1
    35    13     4   ar
    36     9     5   ar
    37    33    27   ar
    38    25    26    1
@<TRIPOS>MOLECULE
*****
 33 38 0 0 0
SMALL
GASTEIGER

@<TRIPOS>ATOM
      1 N          58.0092   92.8803   -1.5874 N.ar    1  UNL1       -0.3090
      2 C          58.5400   92.9058   -2.9900 C.ar    1  UNL1        0.1154
      3 C          60.0240   93.1132   -2.9204 C.ar    1  UNL1        0.0263
      4 C          60.4102   93.2160   -1.4746 C.ar    1  UNL1        0.0532
      5 C          61.7350   93.4220   -0.8018 C.ar    1  UNL1        0.0847
      6 C          61.8145   93.4841    0.6948 C.ar    1  UNL1        0.1304
      7 N          63.2502   93.6954    1.0743 N.ar    1  UNL1       -0.2211
      8 C          64.0580   93.7640   -0.1877 C.ar    1  UNL1        0.1787
      9 N          63.1215   93.5950   -1.3473 N.ar    1  UNL1       -0.3069
     10 C          63.5044   93.5985   -2.7975 C.3     1  UNL1        0.1320
     11 C          60.5693   93.3401    1.5187 C.ar    1  UNL1        0.1541
     12 N          59.2446   93.1340    0.8458 N.ar    1  UNL1       -0.2118
     13 C          59.1651   93.0720   -0.6507 C.ar    1  UNL1        0.1468
     14 C          57.7292   92.7510   -4.2425 C.2     1  UNL1        0.2649
     15 O          57.4593   91.3836   -4.7970 O.2     1  UNL1       -0.2683
     16 N          57.1884   93.9636   -4.9405 N.am    1  UNL1       -0.2782
     17 C          56.3776   93.8087   -6.1930 C.3     1  UNL1        0.0757
     18 C          55.8849   92.9560   -7.3244 C.3     1  UNL1        0.0215
     19 C          55.4660   94.3932   -7.2309 C.3     1  UNL1        0.0215
     20 C          57.4583   95.3309   -4.3860 C.3     1  UNL1        0.0757
     21 C          58.4271   96.4151   -4.0172 C.3     1  UNL1        0.0215
     22 C          56.9572   96.6149   -3.7945 C.3     1  UNL1        0.0215
     23 C          55.5445   93.7021   -1.6111 C.3     1  UNL1        0.0265
     24 C          56.5743   92.6955   -1.1909 C.3     1  UNL1        0.1077
     25 N          60.6488   93.4021    3.0153 N.pl3   1  UNL1       -0.2807
     26 H          61.2326   94.0649    3.4502 H       1  UNL1        0.1551
     27 C          59.8388   92.4544    3.8493 C.ar    1  UNL1        0.1542
     28 C          60.3836   91.3821    4.7456 C.ar    1  UNL1        0.0505
     29 C          59.2232   90.6775    5.3836 C.ar    1  UNL1        0.0589
     30 C          59.3096   89.5364    6.3535 C.3     1  UNL1        0.0518
     31 N          57.9613   91.3143    4.8817 N.ar    1  UNL1       -0.2516
     32 C          56.5641   90.9219    5.2613 C.3     1  UNL1        0.1534
     33 N          58.3418   92.4125    3.9334 N.ar    1  UNL1       -0.1543
@<TRIPOS>BOND
     1    23    24    1
     2    24     1    1
     3     1     2   ar
     4     2    14    1
     5    14    15    2
     6    14    16   am
     7    16    17    1
     8    17    18    1
     9    18    19    1
    10    16    20    1
    11    20    21    1
    12    21    22    1
    13     2     3   ar
    14     3     4   ar
    15     4     5   ar
    16     5     6   ar
    17     6     7   ar
    18     7     8   ar
    19     8     9   ar
    20     9    10    1
    21     6    11   ar
    22    11    25    1
    23    25    27    1
    24    27    28   ar
    25    28    29   ar
    26    29    30    1
    27    29    31   ar
    28    31    32    1
    29    31    33   ar
    30    11    12   ar
    31    12    13   ar
    32    13     1   ar
    33    19    17    1
    34    22    20    1
    35    13     4   ar
    36     9     5   ar
    37    33    27   ar
    38    25    26    1
@<TRIPOS>MOLECULE
*****
 33 38 0 0 0
SMALL
GASTEIGER

@<TRIPOS>ATOM
      1 N          63.7431   85.7754   12.9693 N.ar    1  UNL1       -0.3090
      2 C          62.8856   84.9600   12.0475 C.ar    1  UNL1        0.1154
      3 C          62.0710   85.9052   11.2150 C.ar    1  UNL1        0.0263
      4 C          62.4251   87.3048   11.6222 C.ar    1  UNL1        0.0532
      5 C          61.9401   88.6418   11.1459 C.ar    1  UNL1        0.0847
      6 C          62.4884   89.8987   11.7537 C.ar    1  UNL1        0.1304
      7 N          61.8241   91.0654   11.0847 N.ar    1  UNL1       -0.2211
      8 C          60.8652   90.5295   10.0633 C.ar    1  UNL1        0.1787
      9 N          60.9368   89.0316   10.1011 N.ar    1  UNL1       -0.3069
     10 C          60.1444   88.0891    9.2445 C.3     1  UNL1        0.1320
     11 C          63.5218   89.8186   12.8380 C.ar    1  UNL1        0.1541
     12 N          64.0069   88.4814   13.3143 N.ar    1  UNL1       -0.2118
     13 C          63.4585   87.2246   12.7065 C.ar    1  UNL1        0.1468
     14 C          62.8490   83.4624   11.9716 C.2     1  UNL1        0.2649
     15 O          63.1243   82.7705   10.6695 O.2     1  UNL1       -0.2683
     16 N          62.5373   82.6567   13.1979 N.am    1  UNL1       -0.2782
     17 C          62.5008   81.1590   13.1219 C.3     1  UNL1        0.0757
     18 C          62.0974   79.8381   13.7068 C.3     1  UNL1        0.0215
     19 C          62.8411   79.8861   12.4051 C.3     1  UNL1        0.0215
     20 C          62.2621   83.3486   14.5000 C.3     1  UNL1        0.0757
     21 C          62.5101   83.4925   15.9723 C.3     1  UNL1        0.0215
     22 C          61.5375   84.4029   15.2830 C.3     1  UNL1        0.0215
     23 C          64.9920   86.0031   15.2362 C.3     1  UNL1        0.0265
     24 C          64.7147   85.2364   13.9771 C.3     1  UNL1        0.1077
     25 N          64.0702   91.0755   13.4459 N.pl3   1  UNL1       -0.2807
     26 H          63.8779   91.2917   14.3869 H       1  UNL1        0.1551
     27 C          64.9117   92.0028   12.6201 C.ar    1  UNL1        0.1542
     28 C          65.6620   91.6381   11.3735 C.ar    1  UNL1        0.0505
     29 C          66.3645   92.8677   10.8789 C.ar    1  UNL1        0.0589
     30 C          67.2311   92.9570    9.6578 C.3     1  UNL1        0.0518
     31 N          66.0485   93.9923   11.8198 N.ar    1  UNL1       -0.2516
     32 C          66.5434   95.4036   11.7049 C.3     1  UNL1        0.1534
     33 N          65.1505   93.4577   12.8960 N.ar    1  UNL1       -0.1543
@<TRIPOS>BOND
     1    23    24    1
     2    24     1    1
     3     1     2   ar
     4     2    14    1
     5    14    15    2
     6    14    16   am
     7    16    17    1
     8    17    18    1
     9    18    19    1
    10    16    20    1
    11    20    21    1
    12    21    22    1
    13     2     3   ar
    14     3     4   ar
    15     4     5   ar
    16     5     6   ar
    17     6     7   ar
    18     7     8   ar
    19     8     9   ar
    20     9    10    1
    21     6    11   ar
    22    11    25    1
    23    25    27    1
    24    27    28   ar
    25    28    29   ar
    26    29    30    1
    27    29    31   ar
    28    31    32    1
    29    31    33   ar
    30    11    12   ar
    31    12    13   ar
    32    13     1   ar
    33    19    17    1
    34    22    20    1
    35    13     4   ar
    36     9     5   ar
    37    33    27   ar
    38    25    26    1
@<TRIPOS>MOLECULE
*****
 33 38 0 0 0
SMALL
GASTEIGER

@<TRIPOS>ATOM
      1 N          61.4379   89.5898   11.3412 N.ar    1  UNL1       -0.3090
      2 C          62.6339   88.9491   11.9807 C.ar    1  UNL1        0.1154
      3 C          62.9578   87.7020   11.2128 C.ar    1  UNL1        0.0263
      4 C          61.9619   87.5719   10.0986 C.ar    1  UNL1        0.0532
      5 C          61.7892   86.5418    9.0221 C.ar    1  UNL1        0.0847
      6 C          60.6770   86.6783    8.0249 C.ar    1  UNL1        0.1304
      7 N          60.7543   85.5142    7.0820 N.ar    1  UNL1       -0.2211
      8 C          61.9142   84.6582    7.4966 C.ar    1  UNL1        0.1787
      9 N          62.5538   85.2932    8.6956 N.ar    1  UNL1       -0.3069
     10 C          63.7483   84.7714    9.4378 C.3     1  UNL1        0.1320
     11 C          59.7377   87.8450    8.1041 C.ar    1  UNL1        0.1541
     12 N          59.9105   88.8752    9.1807 N.ar    1  UNL1       -0.2118
     13 C          61.0226   88.7386   10.1779 C.ar    1  UNL1        0.1468
     14 C          63.3757   89.4651   13.1780 C.2     1  UNL1        0.2649
     15 O          63.2652   88.7523   14.4932 O.2     1  UNL1       -0.2683
     16 N          64.2280   90.6938   13.0601 N.am    1  UNL1       -0.2782
     17 C          64.9698   91.2096   14.2575 C.3     1  UNL1        0.0757
     18 C          64.9670   91.7045   15.6734 C.3     1  UNL1        0.0215
     19 C          66.2576   91.6082   14.9153 C.3     1  UNL1        0.0215
     20 C          64.3385   91.4065   11.7449 C.3     1  UNL1        0.0757
     21 C          65.0394   92.3900   10.8553 C.3     1  UNL1        0.0215
     22 C          63.8291   91.6576   10.3567 C.3     1  UNL1        0.0215
     23 C          59.2863   91.0100   11.6640 C.3     1  UNL1        0.0265
     24 C          60.7737   90.8589   11.7866 C.3     1  UNL1        0.1077
     25 N          58.6255   87.9817    7.1069 N.pl3   1  UNL1       -0.2807
     26 H          58.0042   87.2328    6.9567 H       1  UNL1        0.1551
     27 C          58.4598   89.2593    6.3386 C.ar    1  UNL1        0.1542
     28 C          59.5679   90.1056    5.7857 C.ar    1  UNL1        0.0505
     29 C          58.9498   91.2842    5.0937 C.ar    1  UNL1        0.0589
     30 C          59.6915   92.3872    4.3985 C.3     1  UNL1        0.0518
     31 N          57.4597   91.1663    5.2190 N.ar    1  UNL1       -0.2516
     32 C          56.4497   92.1305    4.6710 C.3     1  UNL1        0.1534
     33 N          57.1569   89.9148    5.9884 N.ar    1  UNL1       -0.1543
@<TRIPOS>BOND
     1    23    24    1
     2    24     1    1
     3     1     2   ar
     4     2    14    1
     5    14    15    2
     6    14    16   am
     7    16    17    1
     8    17    18    1
     9    18    19    1
    10    16    20    1
    11    20    21    1
    12    21    22    1
    13     2     3   ar
    14     3     4   ar
    15     4     5   ar
    16     5     6   ar
    17     6     7   ar
    18     7     8   ar
    19     8     9   ar
    20     9    10    1
    21     6    11   ar
    22    11    25    1
    23    25    27    1
    24    27    28   ar
    25    28    29   ar
    26    29    30    1
    27    29    31   ar
    28    31    32    1
    29    31    33   ar
    30    11    12   ar
    31    12    13   ar
    32    13     1   ar
    33    19    17    1
    34    22    20    1
    35    13     4   ar
    36     9     5   ar
    37    33    27   ar
    38    25    26    1
