@<TRIPOS>MOLECULE
*****
 38 42 0 0 0
SMALL
GASTEIGER

@<TRIPOS>ATOM
      1 C          60.3941   93.1849    1.9980 C.ar    1  UNL1        0.1110
      2 N          58.9805   93.0411    2.4788 N.ar    1  UNL1       -0.2412
      3 C          58.9918   92.1654    3.6965 C.ar    1  UNL1        0.0875
      4 C          57.8921   91.6785    4.5929 C.ar    1  UNL1        0.0196
      5 C          58.2130   90.7942    5.7612 C.ar    1  UNL1        0.0016
      6 C          59.6336   90.3967    6.0331 C.ar    1  UNL1        0.0006
      7 C          60.7333   90.8835    5.1367 C.ar    1  UNL1        0.0080
      8 C          60.4124   91.7679    3.9684 C.ar    1  UNL1        0.0482
      9 S          61.2790   92.3980    2.9186 S.2     1  UNL1       -0.0693
     10 C          59.9545   89.5123    7.2014 C.ar    1  UNL1        0.0000
     11 C          60.7917   90.0357    8.3306 C.ar    1  UNL1        0.0001
     12 C          61.1126   89.1513    9.4990 C.ar    1  UNL1        0.0045
     13 C          60.5962   87.7435    9.5380 C.ar    1  UNL1        0.0536
     14 C          59.7590   87.2201    8.4088 C.ar    1  UNL1        0.0045
     15 C          59.4382   88.1045    7.2405 C.ar    1  UNL1        0.0001
     16 C          60.9170   86.8592   10.7063 C.2     1  UNL1        0.2492
     17 O          60.2626   87.1032   12.0338 O.2     1  UNL1       -0.2699
     18 N          61.8923   85.7307   10.5471 N.am    1  UNL1       -0.2709
     19 C          62.5467   85.4866    9.2197 C.3     1  UNL1        0.1258
     20 C          63.5220   84.3581    9.0605 C.3     1  UNL1        0.1637
     21 O          63.8429   83.4737   10.2288 O.3     1  UNL1       -0.3501
     22 C          63.1884   83.7178   11.5562 C.3     1  UNL1        0.1637
     23 C          62.2132   84.8462   11.7154 C.3     1  UNL1        0.1258
     24 C          60.8437   93.9766    0.8059 C.3     1  UNL1        0.2129
     25 C          59.8757   94.2865   -0.2971 C.2     1  UNL1        0.2430
     26 O          60.2340   93.9731   -1.7196 O.2     1  UNL1       -0.2735
     27 N          58.5492   94.9099    0.0222 N.am    1  UNL1       -0.2955
     28 H          58.3140   95.1157    0.9558 H       1  UNL1        0.1499
     29 C          57.5812   95.2199   -1.0809 C.3     1  UNL1        0.1757
     30 C          56.8423   94.1079   -1.7647 C.2     1  UNL1        0.2425
     31 O          55.4334   93.7854   -1.3632 O.2     1  UNL1       -0.2733
     32 N          57.5122   93.3185   -2.8501 N.am    1  UNL1       -0.3046
     33 H          58.4369   93.5302   -3.1136 H       1  UNL1        0.1494
     34 C          56.7734   92.2066   -3.5339 C.3     1  UNL1        0.0717
     35 C          56.1156   90.8595   -3.4822 C.3     1  UNL1        0.0213
     36 C          56.1514   91.6277   -4.7701 C.3     1  UNL1        0.0213
     37 N          63.6792   94.9401    0.6278 N.1     1  UNL1       -0.1950
     38 C          62.2614   94.4583    0.7169 C.1     1  UNL1        0.0881
@<TRIPOS>BOND
     1    37    38    3
     2    38    24    1
     3    24    25    1
     4    25    26    2
     5    25    27   am
     6    27    29    1
     7    29    30    1
     8    30    31    2
     9    30    32   am
    10    32    34    1
    11    34    35    1
    12    35    36    1
    13    24     1    1
    14     1     2   ar
    15     2     3   ar
    16     3     4   ar
    17     4     5   ar
    18     5     6   ar
    19     6    10    1
    20    10    11   ar
    21    11    12   ar
    22    12    13   ar
    23    13    16    1
    24    16    17    2
    25    16    18   am
    26    18    19    1
    27    19    20    1
    28    20    21    1
    29    21    22    1
    30    22    23    1
    31    13    14   ar
    32    14    15   ar
    33     6     7   ar
    34     7     8   ar
    35     8     9   ar
    36    36    34    1
    37     9     1   ar
    38     8     3   ar
    39    15    10   ar
    40    23    18    1
    41    27    28    1
    42    32    33    1
@<TRIPOS>MOLECULE
*****
 38 42 0 0 0
SMALL
GASTEIGER

@<TRIPOS>ATOM
      1 C          59.8237   89.8556    6.6682 C.ar    1  UNL1        0.1110
      2 N          58.6712   90.5533    6.0087 N.ar    1  UNL1       -0.2412
      3 C          59.2079   91.3430    4.8519 C.ar    1  UNL1        0.0875
      4 C          58.5369   92.2259    3.8418 C.ar    1  UNL1        0.0196
      5 C          59.3502   92.8992    2.7764 C.ar    1  UNL1        0.0016
      6 C          60.8344   92.6896    2.7210 C.ar    1  UNL1        0.0006
      7 C          61.5054   91.8067    3.7310 C.ar    1  UNL1        0.0080
      8 C          60.6922   91.1334    4.7965 C.ar    1  UNL1        0.0482
      9 S          61.0727   90.2142    5.9190 S.2     1  UNL1       -0.0693
     10 C          61.6477   93.3630    1.6554 C.ar    1  UNL1        0.0000
     11 C          61.0008   94.3503    0.7298 C.ar    1  UNL1        0.0001
     12 C          61.8141   95.0236   -0.3357 C.ar    1  UNL1        0.0045
     13 C          63.2742   94.7096   -0.4756 C.ar    1  UNL1        0.0536
     14 C          63.9210   93.7222    0.4501 C.ar    1  UNL1        0.0045
     15 C          63.1077   93.0489    1.5155 C.ar    1  UNL1        0.0001
     16 C          64.0874   95.3829   -1.5410 C.2     1  UNL1        0.2492
     17 O          64.7884   96.6756   -1.2450 O.2     1  UNL1       -0.2699
     18 N          64.1997   94.7635   -2.9025 N.am    1  UNL1       -0.2709
     19 C          63.4988   93.4708   -3.1985 C.3     1  UNL1        0.1258
     20 C          63.6112   92.8514   -4.5601 C.3     1  UNL1        0.1637
     21 O          64.4244   93.5247   -5.6256 O.3     1  UNL1       -0.3501
     22 C          65.1253   94.8174   -5.3296 C.3     1  UNL1        0.1637
     23 C          65.0130   95.4368   -3.9681 C.3     1  UNL1        0.1258
     24 C          59.7415   88.9571    7.8666 C.3     1  UNL1        0.2129
     25 C          60.4031   89.3584    9.1516 C.2     1  UNL1        0.2430
     26 O          59.8075   90.4477    9.9935 O.2     1  UNL1       -0.2735
     27 N          61.6601   88.6704    9.5947 N.am    1  UNL1       -0.2955
     28 H          62.0510   87.9554    9.0422 H       1  UNL1        0.1499
     29 C          62.3217   89.0717   10.8798 C.3     1  UNL1        0.1757
     30 C          62.7816   88.0211   11.8466 C.2     1  UNL1        0.2425
     31 O          63.5787   88.4119   13.0558 O.2     1  UNL1       -0.2733
     32 N          62.4446   86.5797   11.6042 N.am    1  UNL1       -0.3046
     33 H          61.9214   86.3232   10.8106 H       1  UNL1        0.1494
     34 C          62.9045   85.5291   12.5710 C.3     1  UNL1        0.0717
     35 C          63.8785   85.0560   13.6090 C.3     1  UNL1        0.0213
     36 C          62.7271   84.1824   13.2074 C.3     1  UNL1        0.0213
     37 N          58.2542   86.3575    7.6932 N.1     1  UNL1       -0.1950
     38 C          58.9979   87.6574    7.7799 C.1     1  UNL1        0.0881
@<TRIPOS>BOND
     1    37    38    3
     2    38    24    1
     3    24    25    1
     4    25    26    2
     5    25    27   am
     6    27    29    1
     7    29    30    1
     8    30    31    2
     9    30    32   am
    10    32    34    1
    11    34    35    1
    12    35    36    1
    13    24     1    1
    14     1     2   ar
    15     2     3   ar
    16     3     4   ar
    17     4     5   ar
    18     5     6   ar
    19     6    10    1
    20    10    11   ar
    21    11    12   ar
    22    12    13   ar
    23    13    16    1
    24    16    17    2
    25    16    18   am
    26    18    19    1
    27    19    20    1
    28    20    21    1
    29    21    22    1
    30    22    23    1
    31    13    14   ar
    32    14    15   ar
    33     6     7   ar
    34     7     8   ar
    35     8     9   ar
    36    36    34    1
    37     9     1   ar
    38     8     3   ar
    39    15    10   ar
    40    23    18    1
    41    27    28    1
    42    32    33    1
@<TRIPOS>MOLECULE
*****
 38 42 0 0 0
SMALL
GASTEIGER

@<TRIPOS>ATOM
      1 C          59.7363   89.4639    6.8624 C.ar    1  UNL1        0.1110
      2 N          58.5755   90.2408    6.3157 N.ar    1  UNL1       -0.2412
      3 C          59.0808   91.1044    5.1981 C.ar    1  UNL1        0.0875
      4 C          58.3898   92.0807    4.2930 C.ar    1  UNL1        0.0196
      5 C          59.1719   92.8139    3.2439 C.ar    1  UNL1        0.0016
      6 C          60.6450   92.5706    3.0998 C.ar    1  UNL1        0.0006
      7 C          61.3360   91.5943    4.0049 C.ar    1  UNL1        0.0080
      8 C          60.5539   90.8612    5.0541 C.ar    1  UNL1        0.0482
      9 S          60.9590   89.8473    6.0827 S.2     1  UNL1       -0.0693
     10 C          61.4272   93.3038    2.0506 C.ar    1  UNL1        0.0000
     11 C          60.7429   94.3052    1.1680 C.ar    1  UNL1        0.0001
     12 C          61.5251   95.0384    0.1188 C.ar    1  UNL1        0.0045
     13 C          62.9915   94.7702   -0.0477 C.ar    1  UNL1        0.0536
     14 C          63.6757   93.7687    0.8350 C.ar    1  UNL1        0.0045
     15 C          62.8936   93.0356    1.8841 C.ar    1  UNL1        0.0001
     16 C          63.7736   95.5033   -1.0968 C.2     1  UNL1        0.2492
     17 O          64.3784   96.8399   -0.7843 O.2     1  UNL1       -0.2699
     18 N          63.9510   94.8998   -2.4586 N.am    1  UNL1       -0.2709
     19 C          63.3462   93.5632   -2.7711 C.3     1  UNL1        0.1258
     20 C          63.5236   92.9597   -4.1329 C.3     1  UNL1        0.1637
     21 O          64.3057   93.6928   -5.1821 O.3     1  UNL1       -0.3501
     22 C          64.9105   95.0294   -4.8695 C.3     1  UNL1        0.1637
     23 C          64.7331   95.6329   -3.5078 C.3     1  UNL1        0.1258
     24 C          59.6837   88.4770    7.9907 C.3     1  UNL1        0.2129
     25 C          59.9736   88.9244    9.3927 C.2     1  UNL1        0.2430
     26 O          59.8194   87.9631   10.5339 O.2     1  UNL1       -0.2735
     27 N          60.4177   90.3332    9.6537 N.am    1  UNL1       -0.2955
     28 H          60.5189   90.9642    8.9048 H       1  UNL1        0.1499
     29 C          60.7076   90.7807   11.0558 C.3     1  UNL1        0.1757
     30 C          62.0316   90.4638   11.6855 C.2     1  UNL1        0.2425
     31 O          63.2886   90.5470   10.8710 O.2     1  UNL1       -0.2733
     32 N          62.0988   90.0638   13.1296 N.am    1  UNL1       -0.3046
     33 H          61.2738   90.0092   13.6641 H       1  UNL1        0.1494
     34 C          63.4228   89.7470   13.7593 C.3     1  UNL1        0.0717
     35 C          64.7743   90.1908   14.2352 C.3     1  UNL1        0.0213
     36 C          64.3646   88.7545   14.3740 C.3     1  UNL1        0.0213
     37 N          58.9986   85.6080    7.4433 N.1     1  UNL1       -0.1950
     38 C          59.3412   87.0425    7.7170 C.1     1  UNL1        0.0881
@<TRIPOS>BOND
     1    37    38    3
     2    38    24    1
     3    24    25    1
     4    25    26    2
     5    25    27   am
     6    27    29    1
     7    29    30    1
     8    30    31    2
     9    30    32   am
    10    32    34    1
    11    34    35    1
    12    35    36    1
    13    24     1    1
    14     1     2   ar
    15     2     3   ar
    16     3     4   ar
    17     4     5   ar
    18     5     6   ar
    19     6    10    1
    20    10    11   ar
    21    11    12   ar
    22    12    13   ar
    23    13    16    1
    24    16    17    2
    25    16    18   am
    26    18    19    1
    27    19    20    1
    28    20    21    1
    29    21    22    1
    30    22    23    1
    31    13    14   ar
    32    14    15   ar
    33     6     7   ar
    34     7     8   ar
    35     8     9   ar
    36    36    34    1
    37     9     1   ar
    38     8     3   ar
    39    15    10   ar
    40    23    18    1
    41    27    28    1
    42    32    33    1
@<TRIPOS>MOLECULE
*****
 38 42 0 0 0
SMALL
GASTEIGER

@<TRIPOS>ATOM
      1 C          60.4202   93.1160    2.2956 C.ar    1  UNL1        0.1110
      2 N          59.0063   92.8875    2.7414 N.ar    1  UNL1       -0.2412
      3 C          59.0377   91.9812    3.9363 C.ar    1  UNL1        0.0875
      4 C          57.9463   91.4152    4.7955 C.ar    1  UNL1        0.0196
      5 C          58.2882   90.5175    5.9475 C.ar    1  UNL1        0.0016
      6 C          59.7215   90.1859    6.2403 C.ar    1  UNL1        0.0006
      7 C          60.8129   90.7519    5.3810 C.ar    1  UNL1        0.0080
      8 C          60.4710   91.6496    4.2290 C.ar    1  UNL1        0.0482
      9 S          61.3254   92.3509    3.2151 S.2     1  UNL1       -0.0693
     10 C          60.0634   89.2881    7.3924 C.ar    1  UNL1        0.0000
     11 C          59.6617   87.8432    7.3622 C.ar    1  UNL1        0.0001
     12 C          60.0036   86.9455    8.5143 C.ar    1  UNL1        0.0045
     13 C          60.7471   87.4927    9.6966 C.ar    1  UNL1        0.0536
     14 C          61.1488   88.9377    9.7267 C.ar    1  UNL1        0.0045
     15 C          60.8069   89.8353    8.5746 C.ar    1  UNL1        0.0001
     16 C          61.0890   86.5950   10.8486 C.2     1  UNL1        0.2492
     17 O          60.4618   86.8263   12.1914 O.2     1  UNL1       -0.2699
     18 N          62.0581   85.4662   10.6579 N.am    1  UNL1       -0.2709
     19 C          62.6853   85.2350    9.3150 C.3     1  UNL1        0.1258
     20 C          63.6545   84.1060    9.1243 C.3     1  UNL1        0.1637
     21 O          63.9964   83.2083   10.2764 O.3     1  UNL1       -0.3501
     22 C          63.3691   83.4396   11.6192 C.3     1  UNL1        0.1637
     23 C          62.4000   84.5684   11.8099 C.3     1  UNL1        0.1258
     24 C          60.8530   93.9611    1.1344 C.3     1  UNL1        0.2129
     25 C          60.9521   93.3588   -0.2358 C.2     1  UNL1        0.2430
     26 O          59.7879   92.6081   -0.8111 O.2     1  UNL1       -0.2735
     27 N          62.2155   93.5073   -1.0307 N.am    1  UNL1       -0.2955
     28 H          62.9796   94.0000   -0.6531 H       1  UNL1        0.1499
     29 C          62.3146   92.9050   -2.4009 C.3     1  UNL1        0.1757
     30 C          62.3883   93.7935   -3.6072 C.2     1  UNL1        0.2425
     31 O          61.1297   94.2168   -4.3049 O.2     1  UNL1       -0.2733
     32 N          63.7206   94.2586   -4.1157 N.am    1  UNL1       -0.3046
     33 H          64.5466   93.9808   -3.6578 H       1  UNL1        0.1494
     34 C          63.7943   95.1472   -5.3220 C.3     1  UNL1        0.0717
     35 C          63.6101   95.3541   -6.7962 C.3     1  UNL1        0.0213
     36 C          64.1062   96.4792   -5.9371 C.3     1  UNL1        0.0213
     37 N          61.5202   96.8560    1.5522 N.1     1  UNL1       -0.1950
     38 C          61.1865   95.4085    1.3433 C.1     1  UNL1        0.0881
@<TRIPOS>BOND
     1    37    38    3
     2    38    24    1
     3    24    25    1
     4    25    26    2
     5    25    27   am
     6    27    29    1
     7    29    30    1
     8    30    31    2
     9    30    32   am
    10    32    34    1
    11    34    35    1
    12    35    36    1
    13    24     1    1
    14     1     2   ar
    15     2     3   ar
    16     3     4   ar
    17     4     5   ar
    18     5     6   ar
    19     6    10    1
    20    10    11   ar
    21    11    12   ar
    22    12    13   ar
    23    13    16    1
    24    16    17    2
    25    16    18   am
    26    18    19    1
    27    19    20    1
    28    20    21    1
    29    21    22    1
    30    22    23    1
    31    13    14   ar
    32    14    15   ar
    33     6     7   ar
    34     7     8   ar
    35     8     9   ar
    36    36    34    1
    37     9     1   ar
    38     8     3   ar
    39    15    10   ar
    40    23    18    1
    41    27    28    1
    42    32    33    1
@<TRIPOS>MOLECULE
*****
 38 42 0 0 0
SMALL
GASTEIGER

@<TRIPOS>ATOM
      1 C          59.7831   89.1462    7.6016 C.ar    1  UNL1        0.1110
      2 N          58.3999   89.5551    7.1899 N.ar    1  UNL1       -0.2412
      3 C          58.5176   90.4411    5.9853 C.ar    1  UNL1        0.0875
      4 C          57.4871   91.1395    5.1485 C.ar    1  UNL1        0.0196
      5 C          57.9127   91.9766    3.9788 C.ar    1  UNL1        0.0016
      6 C          59.3687   92.1153    3.6460 C.ar    1  UNL1        0.0006
      7 C          60.3992   91.4170    4.4828 C.ar    1  UNL1        0.0080
      8 C          59.9736   90.5799    5.6525 C.ar    1  UNL1        0.0482
      9 S          60.7557   89.7796    6.6514 S.2     1  UNL1       -0.0693
     10 C          59.7942   92.9525    2.4763 C.ar    1  UNL1        0.0000
     11 C          61.0089   93.8262    2.5817 C.ar    1  UNL1        0.0001
     12 C          61.4344   94.6634    1.4119 C.ar    1  UNL1        0.0045
     13 C          60.6452   94.6268    0.1369 C.ar    1  UNL1        0.0536
     14 C          59.4304   93.7530    0.0315 C.ar    1  UNL1        0.0045
     15 C          59.0050   92.9159    1.2012 C.ar    1  UNL1        0.0001
     16 C          61.0706   95.4639   -1.0328 C.2     1  UNL1        0.2492
     17 O          60.5355   96.8560   -1.1930 O.2     1  UNL1       -0.2699
     18 N          62.0312   94.9088   -2.0423 N.am    1  UNL1       -0.2709
     19 C          62.5663   93.5167   -1.8822 C.3     1  UNL1        0.1258
     20 C          63.5269   92.9617   -2.8918 C.3     1  UNL1        0.1637
     21 O          63.9524   93.7988   -4.0615 O.3     1  UNL1       -0.3501
     22 C          63.4173   95.1909   -4.2216 C.3     1  UNL1        0.1637
     23 C          62.4567   95.7459   -3.2121 C.3     1  UNL1        0.1258
     24 C          60.1324   88.2597    8.7601 C.3     1  UNL1        0.2129
     25 C          60.7818   86.9296    8.5175 C.2     1  UNL1        0.2430
     26 O          60.1344   85.9350    7.5999 O.2     1  UNL1       -0.2735
     27 N          62.0786   86.5938    9.1925 N.am    1  UNL1       -0.2955
     28 H          62.5035   87.2465    9.7947 H       1  UNL1        0.1499
     29 C          62.7280   85.2636    8.9498 C.3     1  UNL1        0.1757
     30 C          63.1523   84.4133   10.1104 C.2     1  UNL1        0.2425
     31 O          63.9787   83.1834    9.8766 O.2     1  UNL1       -0.2733
     32 N          62.7502   84.7928   11.5048 N.am    1  UNL1       -0.3046
     33 H          62.2078   85.6000   11.6582 H       1  UNL1        0.1494
     34 C          63.1745   83.9425   12.6654 C.3     1  UNL1        0.0717
     35 C          62.8705   82.8719   13.6710 C.3     1  UNL1        0.0213
     36 C          64.2133   83.5404   13.6699 C.3     1  UNL1        0.0213
     37 N          59.5321   89.1469   11.5624 N.1     1  UNL1       -0.1950
     38 C          59.8322   88.7033   10.1612 C.1     1  UNL1        0.0881
@<TRIPOS>BOND
     1    37    38    3
     2    38    24    1
     3    24    25    1
     4    25    26    2
     5    25    27   am
     6    27    29    1
     7    29    30    1
     8    30    31    2
     9    30    32   am
    10    32    34    1
    11    34    35    1
    12    35    36    1
    13    24     1    1
    14     1     2   ar
    15     2     3   ar
    16     3     4   ar
    17     4     5   ar
    18     5     6   ar
    19     6    10    1
    20    10    11   ar
    21    11    12   ar
    22    12    13   ar
    23    13    16    1
    24    16    17    2
    25    16    18   am
    26    18    19    1
    27    19    20    1
    28    20    21    1
    29    21    22    1
    30    22    23    1
    31    13    14   ar
    32    14    15   ar
    33     6     7   ar
    34     7     8   ar
    35     8     9   ar
    36    36    34    1
    37     9     1   ar
    38     8     3   ar
    39    15    10   ar
    40    23    18    1
    41    27    28    1
    42    32    33    1
@<TRIPOS>MOLECULE
*****
 38 42 0 0 0
SMALL
GASTEIGER

@<TRIPOS>ATOM
      1 C          59.1888   90.3216    6.4659 C.ar    1  UNL1        0.1110
      2 N          59.3777   90.8790    7.8456 N.ar    1  UNL1       -0.2412
      3 C          60.0283   89.8218    8.6876 C.ar    1  UNL1        0.0875
      4 C          60.4541   89.8053   10.1258 C.ar    1  UNL1        0.0196
      5 C          61.0932   88.5779   10.7047 C.ar    1  UNL1        0.0016
      6 C          61.3065   87.3671    9.8453 C.ar    1  UNL1        0.0006
      7 C          60.8807   87.3837    8.4072 C.ar    1  UNL1        0.0080
      8 C          60.2416   88.6110    7.8283 C.ar    1  UNL1        0.0482
      9 S          59.7228   88.9199    6.4552 S.2     1  UNL1       -0.0693
     10 C          61.9456   86.1397   10.4243 C.ar    1  UNL1        0.0000
     11 C          61.9587   85.9305   11.9095 C.ar    1  UNL1        0.0001
     12 C          62.5979   84.7031   12.4884 C.ar    1  UNL1        0.0045
     13 C          63.2238   83.6850   11.5820 C.ar    1  UNL1        0.0536
     14 C          63.2106   83.8942   10.0967 C.ar    1  UNL1        0.0045
     15 C          62.5715   85.1216    9.5179 C.ar    1  UNL1        0.0001
     16 C          63.8629   82.4576   12.1609 C.2     1  UNL1        0.2492
     17 O          65.3291   82.2109   11.9625 O.2     1  UNL1       -0.2699
     18 N          63.0358   81.4770   12.9382 N.am    1  UNL1       -0.2709
     19 C          61.5696   81.7237   13.1366 C.3     1  UNL1        0.1258
     20 C          60.7425   80.7430   13.9139 C.3     1  UNL1        0.1637
     21 O          61.3816   79.5156   14.4928 O.3     1  UNL1       -0.3501
     22 C          62.8478   79.2689   14.2943 C.3     1  UNL1        0.1637
     23 C          63.6749   80.2495   13.5171 C.3     1  UNL1        0.1258
     24 C          58.5740   91.0398    5.3013 C.3     1  UNL1        0.2129
     25 C          59.4514   91.6657    4.2581 C.2     1  UNL1        0.2430
     26 O          60.9438   91.5935    4.3914 O.2     1  UNL1       -0.2735
     27 N          58.8365   92.3639    3.0815 N.am    1  UNL1       -0.2955
     28 H          57.8570   92.4114    2.9939 H       1  UNL1        0.1499
     29 C          59.7140   92.9899    2.0382 C.3     1  UNL1        0.1757
     30 C          59.1691   93.2685    0.6687 C.2     1  UNL1        0.2425
     31 O          58.9617   94.6841    0.2178 O.2     1  UNL1       -0.2733
     32 N          58.8316   92.1317   -0.2498 N.am    1  UNL1       -0.3046
     33 H          58.9677   91.2027    0.0462 H       1  UNL1        0.1494
     34 C          58.2867   92.4103   -1.6192 C.3     1  UNL1        0.0717
     35 C          57.1327   92.4394   -2.5770 C.3     1  UNL1        0.0213
     36 C          58.4970   92.8639   -3.0334 C.3     1  UNL1        0.0213
     37 N          55.5895   91.2244    5.0586 N.1     1  UNL1       -0.1950
     38 C          57.0818   91.1321    5.1800 C.1     1  UNL1        0.0881
@<TRIPOS>BOND
     1    37    38    3
     2    38    24    1
     3    24    25    1
     4    25    26    2
     5    25    27   am
     6    27    29    1
     7    29    30    1
     8    30    31    2
     9    30    32   am
    10    32    34    1
    11    34    35    1
    12    35    36    1
    13    24     1    1
    14     1     2   ar
    15     2     3   ar
    16     3     4   ar
    17     4     5   ar
    18     5     6   ar
    19     6    10    1
    20    10    11   ar
    21    11    12   ar
    22    12    13   ar
    23    13    16    1
    24    16    17    2
    25    16    18   am
    26    18    19    1
    27    19    20    1
    28    20    21    1
    29    21    22    1
    30    22    23    1
    31    13    14   ar
    32    14    15   ar
    33     6     7   ar
    34     7     8   ar
    35     8     9   ar
    36    36    34    1
    37     9     1   ar
    38     8     3   ar
    39    15    10   ar
    40    23    18    1
    41    27    28    1
    42    32    33    1
@<TRIPOS>MOLECULE
*****
 38 42 0 0 0
SMALL
GASTEIGER

@<TRIPOS>ATOM
      1 C          59.8283   89.1641    7.5387 C.ar    1  UNL1        0.1110
      2 N          58.4910   89.6351    7.0491 N.ar    1  UNL1       -0.2412
      3 C          58.7195   90.5374    5.8727 C.ar    1  UNL1        0.0875
      4 C          57.7722   91.2912    4.9871 C.ar    1  UNL1        0.0196
      5 C          58.3036   92.1317    3.8641 C.ar    1  UNL1        0.0016
      6 C          59.7821   92.2183    3.6267 C.ar    1  UNL1        0.0006
      7 C          60.7294   91.4644    4.5123 C.ar    1  UNL1        0.0080
      8 C          60.1980   90.6239    5.6353 C.ar    1  UNL1        0.0482
      9 S          60.8833   89.7752    6.6649 S.2     1  UNL1       -0.0693
     10 C          60.3134   93.0588    2.5036 C.ar    1  UNL1        0.0000
     11 C          60.0881   94.5418    2.5051 C.ar    1  UNL1        0.0001
     12 C          60.6194   95.3823    1.3820 C.ar    1  UNL1        0.0045
     13 C          61.3760   94.7398    0.2574 C.ar    1  UNL1        0.0536
     14 C          61.6013   93.2568    0.2559 C.ar    1  UNL1        0.0045
     15 C          61.0700   92.4163    1.3790 C.ar    1  UNL1        0.0001
     16 C          61.9073   95.5803   -0.8657 C.2     1  UNL1        0.2492
     17 O          63.2676   96.2031   -0.7578 O.2     1  UNL1       -0.2699
     18 N          61.0783   95.7979   -2.0966 N.am    1  UNL1       -0.2709
     19 C          59.7180   95.1750   -2.2045 C.3     1  UNL1        0.1258
     20 C          58.8890   95.3927   -3.4356 C.3     1  UNL1        0.1637
     21 O          59.4203   96.2331   -4.5587 O.3     1  UNL1       -0.3501
     22 C          60.7806   96.8560   -4.4508 C.3     1  UNL1        0.1637
     23 C          61.6096   96.6384   -3.2198 C.3     1  UNL1        0.1258
     24 C          60.0684   88.2435    8.6984 C.3     1  UNL1        0.2129
     25 C          60.6966   86.9004    8.4723 C.2     1  UNL1        0.2430
     26 O          59.9539   85.8439    7.7092 O.2     1  UNL1       -0.2735
     27 N          62.0676   86.6136    9.0091 N.am    1  UNL1       -0.2955
     28 H          62.5551   87.3070    9.5099 H       1  UNL1        0.1499
     29 C          62.6958   85.2704    8.7829 C.3     1  UNL1        0.1757
     30 C          63.1295   84.4385    9.9534 C.2     1  UNL1        0.2425
     31 O          64.1735   83.3766    9.7730 O.2     1  UNL1       -0.2733
     32 N          62.5193   84.6687   11.3041 N.am    1  UNL1       -0.3046
     33 H          61.8341   85.3656   11.4225 H       1  UNL1        0.1494
     34 C          62.9529   83.8369   12.4746 C.3     1  UNL1        0.0717
     35 C          64.0033   83.4434   13.4706 C.3     1  UNL1        0.0213
     36 C          62.6537   82.7896   13.5059 C.3     1  UNL1        0.0213
     37 N          59.2923   89.0888   11.4703 N.1     1  UNL1       -0.1950
     38 C          59.6804   88.6662   10.0843 C.1     1  UNL1        0.0881
@<TRIPOS>BOND
     1    37    38    3
     2    38    24    1
     3    24    25    1
     4    25    26    2
     5    25    27   am
     6    27    29    1
     7    29    30    1
     8    30    31    2
     9    30    32   am
    10    32    34    1
    11    34    35    1
    12    35    36    1
    13    24     1    1
    14     1     2   ar
    15     2     3   ar
    16     3     4   ar
    17     4     5   ar
    18     5     6   ar
    19     6    10    1
    20    10    11   ar
    21    11    12   ar
    22    12    13   ar
    23    13    16    1
    24    16    17    2
    25    16    18   am
    26    18    19    1
    27    19    20    1
    28    20    21    1
    29    21    22    1
    30    22    23    1
    31    13    14   ar
    32    14    15   ar
    33     6     7   ar
    34     7     8   ar
    35     8     9   ar
    36    36    34    1
    37     9     1   ar
    38     8     3   ar
    39    15    10   ar
    40    23    18    1
    41    27    28    1
    42    32    33    1
@<TRIPOS>MOLECULE
*****
 38 42 0 0 0
SMALL
GASTEIGER

@<TRIPOS>ATOM
      1 C          59.8744   89.3709    7.5133 C.ar    1  UNL1        0.1110
      2 N          58.4839   89.7180    7.0704 N.ar    1  UNL1       -0.2412
      3 C          58.5888   90.5861    5.8516 C.ar    1  UNL1        0.0875
      4 C          57.5472   91.2286    4.9843 C.ar    1  UNL1        0.0196
      5 C          57.9609   92.0605    3.8067 C.ar    1  UNL1        0.0016
      6 C          59.4162   92.2499    3.4965 C.ar    1  UNL1        0.0006
      7 C          60.4578   91.6075    4.3638 C.ar    1  UNL1        0.0080
      8 C          60.0441   90.7756    5.5413 C.ar    1  UNL1        0.0482
      9 S          60.8386   90.0245    6.5683 S.2     1  UNL1       -0.0693
     10 C          59.8298   93.0819    2.3188 C.ar    1  UNL1        0.0000
     11 C          59.8359   92.4840    0.9432 C.ar    1  UNL1        0.0001
     12 C          60.2495   93.3159   -0.2345 C.ar    1  UNL1        0.0045
     13 C          60.6571   94.7458   -0.0364 C.ar    1  UNL1        0.0536
     14 C          60.6510   95.3438    1.3393 C.ar    1  UNL1        0.0045
     15 C          60.2374   94.5118    2.5169 C.ar    1  UNL1        0.0001
     16 C          61.0707   95.5778   -1.2140 C.2     1  UNL1        0.2492
     17 O          60.0290   96.1874   -2.1046 O.2     1  UNL1       -0.2699
     18 N          62.5261   95.8002   -1.5009 N.am    1  UNL1       -0.2709
     19 C          63.5679   95.1905   -0.6103 C.3     1  UNL1        0.1258
     20 C          65.0233   95.4129   -0.8974 C.3     1  UNL1        0.1637
     21 O          65.4369   96.2449   -2.0749 O.3     1  UNL1       -0.3501
     22 C          64.3952   96.8545   -2.9655 C.3     1  UNL1        0.1637
     23 C          62.9398   96.6322   -2.6786 C.3     1  UNL1        0.1258
     24 C          60.2369   88.5196    8.6940 C.3     1  UNL1        0.2129
     25 C          60.4694   89.1542   10.0330 C.2     1  UNL1        0.2430
     26 O          59.3460   89.2513   11.0223 O.2     1  UNL1       -0.2735
     27 N          61.8254   89.6918   10.3829 N.am    1  UNL1       -0.2955
     28 H          62.5627   89.6282    9.7336 H       1  UNL1        0.1499
     29 C          62.0579   90.3265   11.7220 C.3     1  UNL1        0.1757
     30 C          63.3225   91.0907   11.9804 C.2     1  UNL1        0.2425
     31 O          63.8060   91.2873   13.3867 O.2     1  UNL1       -0.2733
     32 N          64.1036   91.6583   10.8325 N.am    1  UNL1       -0.3046
     33 H          63.7862   91.5293    9.9095 H       1  UNL1        0.1494
     34 C          65.3682   92.4226   11.0908 C.3     1  UNL1        0.0717
     35 C          66.2341   93.2272   12.0142 C.3     1  UNL1        0.0213
     36 C          66.6926   92.9415   10.6149 C.3     1  UNL1        0.0213
     37 N          60.4969   85.5477    8.3772 N.1     1  UNL1       -0.1950
     38 C          60.3669   87.0337    8.5356 C.1     1  UNL1        0.0881
@<TRIPOS>BOND
     1    37    38    3
     2    38    24    1
     3    24    25    1
     4    25    26    2
     5    25    27   am
     6    27    29    1
     7    29    30    1
     8    30    31    2
     9    30    32   am
    10    32    34    1
    11    34    35    1
    12    35    36    1
    13    24     1    1
    14     1     2   ar
    15     2     3   ar
    16     3     4   ar
    17     4     5   ar
    18     5     6   ar
    19     6    10    1
    20    10    11   ar
    21    11    12   ar
    22    12    13   ar
    23    13    16    1
    24    16    17    2
    25    16    18   am
    26    18    19    1
    27    19    20    1
    28    20    21    1
    29    21    22    1
    30    22    23    1
    31    13    14   ar
    32    14    15   ar
    33     6     7   ar
    34     7     8   ar
    35     8     9   ar
    36    36    34    1
    37     9     1   ar
    38     8     3   ar
    39    15    10   ar
    40    23    18    1
    41    27    28    1
    42    32    33    1
