@<TRIPOS>MOLECULE
*****
 50 54 0 0 0
SMALL
GASTEIGER

@<TRIPOS>ATOM
      1 C          60.4470   87.2112   10.3710 C.3     1  UNL1        0.1916
      2 O          61.4805   86.6960   11.3284 O.3     1  UNL1       -0.3147
      3 C          62.5234   85.7268   10.8562 C.3     1  UNL1        0.3183
      4 C          62.5328   85.2727    9.4265 C.3     1  UNL1        0.2105
      5 O          63.5756   84.3035    8.9543 O.3     1  UNL1       -0.3766
      6 C          61.4993   85.7879    8.4692 C.3     1  UNL1        0.1729
      7 O          61.5086   85.3338    7.0396 O.3     1  UNL1       -0.3793
      8 C          60.4564   86.7571    8.9415 C.3     1  UNL1        0.1707
      9 O          59.4229   87.2723    7.9841 O.3     1  UNL1       -0.3794
     10 H          64.1609   84.0731    9.6927 H       1  UNL1        0.2107
     11 H          60.7798   85.7584    6.5607 H       1  UNL1        0.2105
     12 H          59.5705   86.8823    7.1083 H       1  UNL1        0.2105
     13 C          59.4042   88.1804   10.8433 C.3     1  UNL1        0.2407
     14 O          59.7635   89.6198   11.0647 O.3     1  UNL1       -0.4427
     15 O          61.0480   90.3051    8.9129 O.2     1  UNL1       -0.2449
     16 C          60.9814   90.1985   10.4076 C.2     1  UNL1        0.3415
     17 C          62.1328   90.6705   11.2452 C.2     1  UNL1        0.0819
     18 C          63.3442   91.2635   10.5889 C.2     1  UNL1        0.0067
     19 C          64.4956   91.7355   11.4265 C.ar    1  UNL1        0.0004
     20 C          64.5206   91.4464   12.8981 C.ar    1  UNL1        0.0031
     21 C          65.6720   91.9185   13.7357 C.ar    1  UNL1        0.0366
     22 C          66.7983   92.6796   13.1017 C.ar    1  UNL1        0.1337
     23 O          67.9496   93.1517   13.9393 O.3     1  UNL1       -0.5055
     24 C          66.7732   92.9687   11.6301 C.ar    1  UNL1        0.0366
     25 C          65.6219   92.4967   10.7925 C.ar    1  UNL1        0.0031
     26 H          67.9653   92.9711   14.8586 H       1  UNL1        0.2922
     27 O          63.5569   85.2117   11.8135 O.3     1  UNL1       -0.4441
     28 C          63.3417   85.3438   13.2921 C.ar    1  UNL1        0.2144
     29 C          63.0096   84.1330   14.1128 C.ar    1  UNL1        0.1822
     30 O          62.7944   84.2651   15.5914 O.2     1  UNL1       -0.4500
     31 C          62.9112   85.6081   16.2493 C.ar    1  UNL1        0.1545
     32 C          62.6960   85.7403   17.7278 C.ar    1  UNL1        0.0744
     33 C          62.8129   87.0832   18.3856 C.ar    1  UNL1        0.1397
     34 O          62.5977   87.2154   19.8643 O.3     1  UNL1       -0.5053
     35 C          63.1450   88.2941   17.5649 C.ar    1  UNL1        0.0735
     36 C          63.3602   88.1619   16.0863 C.ar    1  UNL1        0.1428
     37 O          63.6922   89.3727   15.2655 O.3     1  UNL1       -0.5052
     38 C          63.2433   86.8190   15.4285 C.ar    1  UNL1        0.1104
     39 C          63.4585   86.6868   13.9499 C.ar    1  UNL1        0.2382
     40 O          63.7906   87.8976   13.1291 O.2     1  UNL1       -0.2830
     41 H          62.3903   86.4591   20.3770 H       1  UNL1        0.2922
     42 H          63.7652   90.2117   15.6765 H       1  UNL1        0.2922
     43 C          62.8928   82.7900   13.4550 C.ar    1  UNL1        0.0379
     44 C          63.5124   82.5578   12.1088 C.ar    1  UNL1        0.0062
     45 C          63.3955   81.2148   11.4510 C.ar    1  UNL1        0.0367
     46 C          62.6591   80.1040   12.1394 C.ar    1  UNL1        0.1337
     47 O          62.5422   78.7610   11.4815 O.3     1  UNL1       -0.5055
     48 C          62.0395   80.3362   13.4855 C.ar    1  UNL1        0.0367
     49 C          62.1563   81.6792   14.1434 C.ar    1  UNL1        0.0062
     50 H          62.9293   78.6160   10.6406 H       1  UNL1        0.2922
@<TRIPOS>BOND
     1    15    16    2
     2    16    17    1
     3    17    18    2
     4    18    19    1
     5    19    20   ar
     6    20    21   ar
     7    21    22   ar
     8    22    23    1
     9    22    24   ar
    10    24    25   ar
    11    16    14    1
    12    14    13    1
    13     1    13    1
    14     1     2    1
    15     2     3    1
    16     3    27    1
    17    27    28    1
    18    28    29   ar
    19    29    43    1
    20    43    44   ar
    21    44    45   ar
    22    45    46   ar
    23    46    47    1
    24    46    48   ar
    25    48    49   ar
    26    29    30   ar
    27    30    31   ar
    28    31    32   ar
    29    32    33   ar
    30    33    34    1
    31    33    35   ar
    32    35    36   ar
    33    36    37    1
    34    36    38   ar
    35    38    39   ar
    36    39    40    2
    37     3     4    1
    38     4     5    1
    39     4     6    1
    40     6     7    1
    41     6     8    1
    42     8     9    1
    43    25    19   ar
    44     8     1    1
    45    39    28   ar
    46    49    43   ar
    47    38    31   ar
    48    23    26    1
    49    47    50    1
    50    34    41    1
    51    37    42    1
    52     5    10    1
    53     7    11    1
    54     9    12    1
@<TRIPOS>MOLECULE
*****
 50 54 0 0 0
SMALL
GASTEIGER

@<TRIPOS>ATOM
      1 C          60.3813   92.9203    2.6824 C.3     1  UNL1        0.1916
      2 O          60.2066   93.9559    1.6114 O.3     1  UNL1       -0.3147
      3 C          61.3812   94.3826    0.7819 C.3     1  UNL1        0.3183
      4 C          62.7307   93.7736    1.0234 C.3     1  UNL1        0.2105
      5 O          63.9053   94.2002    0.1939 O.3     1  UNL1       -0.3766
      6 C          62.9054   92.7380    2.0944 C.3     1  UNL1        0.1729
      7 O          64.2548   92.1290    2.3358 O.3     1  UNL1       -0.3793
      8 C          61.7306   92.3113    2.9239 C.3     1  UNL1        0.1707
      9 O          61.9054   91.2757    3.9949 O.3     1  UNL1       -0.3794
     10 H          63.6221   94.8711   -0.4469 H       1  UNL1        0.2107
     11 H          64.1936   91.4830    3.0569 H       1  UNL1        0.2105
     12 H          62.8315   90.9883    4.0187 H       1  UNL1        0.2105
     13 C          59.2066   92.4936    3.5119 C.3     1  UNL1        0.2407
     14 O          59.4135   92.0340    4.9247 O.3     1  UNL1       -0.4427
     15 O          57.1324   90.8525    5.3131 O.2     1  UNL1       -0.2449
     16 C          58.6251   90.8754    5.4595 C.2     1  UNL1        0.3415
     17 C          59.3294   89.7396    6.1407 C.2     1  UNL1        0.0819
     18 C          59.3902   89.6851    7.6384 C.2     1  UNL1        0.0067
     19 C          60.0945   88.5493    8.3196 C.ar    1  UNL1        0.0004
     20 C          61.0428   88.8241    9.4488 C.ar    1  UNL1        0.0031
     21 C          61.7471   87.6883   10.1300 C.ar    1  UNL1        0.0366
     22 C          61.5031   86.2778    9.6820 C.ar    1  UNL1        0.1337
     23 O          62.2074   85.1420   10.3631 O.3     1  UNL1       -0.5055
     24 C          60.5548   86.0030    8.5528 C.ar    1  UNL1        0.0366
     25 C          59.8505   87.1388    7.8716 C.ar    1  UNL1        0.0031
     26 H          62.7998   85.3137   11.0685 H       1  UNL1        0.2922
     27 O          61.2065   95.4182   -0.2890 O.3     1  UNL1       -0.4441
     28 C          61.8252   95.2120   -1.6398 C.ar    1  UNL1        0.2144
     29 C          61.0782   94.4581   -2.6998 C.ar    1  UNL1        0.1822
     30 O          61.6969   94.2519   -4.0505 O.2     1  UNL1       -0.4500
     31 C          63.0627   94.7996   -4.3414 C.ar    1  UNL1        0.1545
     32 C          63.6814   94.5934   -5.6922 C.ar    1  UNL1        0.0744
     33 C          65.0472   95.1411   -5.9830 C.ar    1  UNL1        0.1397
     34 O          65.6660   94.9349   -7.3338 O.3     1  UNL1       -0.5053
     35 C          65.7943   95.8950   -4.9230 C.ar    1  UNL1        0.0735
     36 C          65.1756   96.1012   -3.5723 C.ar    1  UNL1        0.1428
     37 O          65.9227   96.8551   -2.5123 O.3     1  UNL1       -0.5052
     38 C          63.8098   95.5535   -3.2815 C.ar    1  UNL1        0.1104
     39 C          63.1910   95.7597   -1.9306 C.ar    1  UNL1        0.2382
     40 O          63.9381   96.5136   -0.8707 O.2     1  UNL1       -0.2830
     41 H          65.1994   94.4639   -7.9960 H       1  UNL1        0.2922
     42 H          66.7758   97.1972   -2.6940 H       1  UNL1        0.2922
     43 C          59.7124   93.9103   -2.4089 C.ar    1  UNL1        0.0379
     44 C          58.5066   94.5145   -3.0655 C.ar    1  UNL1        0.0062
     45 C          57.1408   93.9668   -2.7747 C.ar    1  UNL1        0.0367
     46 C          56.9808   92.8149   -1.8273 C.ar    1  UNL1        0.1337
     47 O          55.6149   92.2672   -1.5365 O.3     1  UNL1       -0.5055
     48 C          58.1865   92.2107   -1.1708 C.ar    1  UNL1        0.0367
     49 C          59.5524   92.7584   -1.4616 C.ar    1  UNL1        0.0062
     50 H          54.8617   92.6447   -1.9467 H       1  UNL1        0.2922
@<TRIPOS>BOND
     1    15    16    2
     2    16    17    1
     3    17    18    2
     4    18    19    1
     5    19    20   ar
     6    20    21   ar
     7    21    22   ar
     8    22    23    1
     9    22    24   ar
    10    24    25   ar
    11    16    14    1
    12    14    13    1
    13     1    13    1
    14     1     2    1
    15     2     3    1
    16     3    27    1
    17    27    28    1
    18    28    29   ar
    19    29    43    1
    20    43    44   ar
    21    44    45   ar
    22    45    46   ar
    23    46    47    1
    24    46    48   ar
    25    48    49   ar
    26    29    30   ar
    27    30    31   ar
    28    31    32   ar
    29    32    33   ar
    30    33    34    1
    31    33    35   ar
    32    35    36   ar
    33    36    37    1
    34    36    38   ar
    35    38    39   ar
    36    39    40    2
    37     3     4    1
    38     4     5    1
    39     4     6    1
    40     6     7    1
    41     6     8    1
    42     8     9    1
    43    25    19   ar
    44     8     1    1
    45    39    28   ar
    46    49    43   ar
    47    38    31   ar
    48    23    26    1
    49    47    50    1
    50    34    41    1
    51    37    42    1
    52     5    10    1
    53     7    11    1
    54     9    12    1
@<TRIPOS>MOLECULE
*****
 50 54 0 0 0
SMALL
GASTEIGER

@<TRIPOS>ATOM
      1 C          61.0804   89.3335    9.2712 C.3     1  UNL1        0.1916
      2 O          62.1777   88.8083   10.1488 O.3     1  UNL1       -0.3147
      3 C          62.1253   89.0333   11.6309 C.3     1  UNL1        0.3183
      4 C          60.9755   89.7835   12.2354 C.3     1  UNL1        0.2105
      5 O          60.9231   90.0085   13.7175 O.3     1  UNL1       -0.3766
      6 C          59.8783   90.3087   11.3578 C.3     1  UNL1        0.1729
      7 O          58.7286   91.0589   11.9623 O.3     1  UNL1       -0.3793
      8 C          59.9307   90.0837    9.8757 C.3     1  UNL1        0.1707
      9 O          58.8334   90.6088    8.9981 O.3     1  UNL1       -0.3794
     10 H          61.7028   89.6081   14.1331 H       1  UNL1        0.2107
     11 H          58.1130   91.3263   11.2620 H       1  UNL1        0.2105
     12 H          58.1738   91.0653    9.5434 H       1  UNL1        0.2105
     13 C          61.1328   89.1085    7.7891 C.3     1  UNL1        0.2407
     14 O          60.1143   88.2281    7.1277 O.3     1  UNL1       -0.4427
     15 O          58.2298   86.6236    7.9181 O.2     1  UNL1       -0.2449
     16 C          59.6880   86.9491    7.7856 C.2     1  UNL1        0.3415
     17 C          60.7201   85.9957    8.3109 C.2     1  UNL1        0.0819
     18 C          61.1218   86.0463    9.7552 C.2     1  UNL1        0.0067
     19 C          62.1538   85.0930   10.2805 C.ar    1  UNL1        0.0004
     20 C          63.0848   84.3980    9.3317 C.ar    1  UNL1        0.0031
     21 C          64.1169   83.4447    9.8570 C.ar    1  UNL1        0.0366
     22 C          64.2180   83.1863   11.3311 C.ar    1  UNL1        0.1337
     23 O          65.2501   82.2329   11.8564 O.3     1  UNL1       -0.5055
     24 C          63.2870   83.8812   12.2799 C.ar    1  UNL1        0.0366
     25 C          62.2549   84.8346   11.7546 C.ar    1  UNL1        0.0031
     26 H          65.8316   81.7988   11.2637 H       1  UNL1        0.2922
     27 O          63.2225   88.5081   12.5085 O.3     1  UNL1       -0.4441
     28 C          64.0753   89.4600   13.2937 C.ar    1  UNL1        0.2144
     29 C          64.4646   89.1295   14.7041 C.ar    1  UNL1        0.1822
     30 O          65.3174   90.0814   15.4894 O.2     1  UNL1       -0.4500
     31 C          65.7809   91.3638   14.8643 C.ar    1  UNL1        0.1545
     32 C          66.6337   92.3156   15.6495 C.ar    1  UNL1        0.0744
     33 C          67.0972   93.5979   15.0244 C.ar    1  UNL1        0.1397
     34 O          67.9500   94.5498   15.8097 O.3     1  UNL1       -0.5053
     35 C          66.7079   93.9284   13.6140 C.ar    1  UNL1        0.0735
     36 C          65.8551   92.9765   12.8287 C.ar    1  UNL1        0.1428
     37 O          65.4658   93.3070   11.4183 O.3     1  UNL1       -0.5052
     38 C          65.3916   91.6942   13.4539 C.ar    1  UNL1        0.1104
     39 C          64.5388   90.7423   12.6686 C.ar    1  UNL1        0.2382
     40 O          64.1495   91.0727   11.2582 O.2     1  UNL1       -0.2830
     41 H          68.1932   94.3434   16.6907 H       1  UNL1        0.2922
     42 H          65.7553   94.1080   11.0278 H       1  UNL1        0.2922
     43 C          64.0011   87.8472   15.3293 C.ar    1  UNL1        0.0379
     44 C          63.1229   87.8800   16.5449 C.ar    1  UNL1        0.0062
     45 C          62.6594   86.5977   17.1701 C.ar    1  UNL1        0.0367
     46 C          63.0741   85.2826   16.5796 C.ar    1  UNL1        0.1337
     47 O          62.6106   84.0002   17.2048 O.3     1  UNL1       -0.5055
     48 C          63.9523   85.2498   15.3640 C.ar    1  UNL1        0.0367
     49 C          64.4158   86.5322   14.7388 C.ar    1  UNL1        0.0062
     50 H          62.0620   84.0207   17.9642 H       1  UNL1        0.2922
@<TRIPOS>BOND
     1    15    16    2
     2    16    17    1
     3    17    18    2
     4    18    19    1
     5    19    20   ar
     6    20    21   ar
     7    21    22   ar
     8    22    23    1
     9    22    24   ar
    10    24    25   ar
    11    16    14    1
    12    14    13    1
    13     1    13    1
    14     1     2    1
    15     2     3    1
    16     3    27    1
    17    27    28    1
    18    28    29   ar
    19    29    43    1
    20    43    44   ar
    21    44    45   ar
    22    45    46   ar
    23    46    47    1
    24    46    48   ar
    25    48    49   ar
    26    29    30   ar
    27    30    31   ar
    28    31    32   ar
    29    32    33   ar
    30    33    34    1
    31    33    35   ar
    32    35    36   ar
    33    36    37    1
    34    36    38   ar
    35    38    39   ar
    36    39    40    2
    37     3     4    1
    38     4     5    1
    39     4     6    1
    40     6     7    1
    41     6     8    1
    42     8     9    1
    43    25    19   ar
    44     8     1    1
    45    39    28   ar
    46    49    43   ar
    47    38    31   ar
    48    23    26    1
    49    47    50    1
    50    34    41    1
    51    37    42    1
    52     5    10    1
    53     7    11    1
    54     9    12    1
@<TRIPOS>MOLECULE
*****
 50 54 0 0 0
SMALL
GASTEIGER

@<TRIPOS>ATOM
      1 C          60.5920   87.5242    8.8412 C.3     1  UNL1        0.1916
      2 O          60.7943   88.2390   10.1443 O.3     1  UNL1       -0.3147
      3 C          61.7036   87.6570   11.1857 C.3     1  UNL1        0.3183
      4 C          62.4106   86.3602   10.9239 C.3     1  UNL1        0.2105
      5 O          63.3199   85.7782   11.9652 O.3     1  UNL1       -0.3766
      6 C          62.2083   85.6454    9.6207 C.3     1  UNL1        0.1729
      7 O          62.9153   84.3487    9.3589 O.3     1  UNL1       -0.3793
      8 C          61.2990   86.2275    8.5793 C.3     1  UNL1        0.1707
      9 O          61.0967   85.5128    7.2762 O.3     1  UNL1       -0.3794
     10 H          63.3382   86.3608   12.7405 H       1  UNL1        0.2107
     11 H          62.6764   84.0225    8.4772 H       1  UNL1        0.2105
     12 H          61.6220   84.6974    7.2697 H       1  UNL1        0.2105
     13 C          59.6827   88.1062    7.7998 C.3     1  UNL1        0.2407
     14 O          59.7099   89.5795    7.5192 O.3     1  UNL1       -0.4427
     15 O          57.7314   90.1132    5.9220 O.2     1  UNL1       -0.2449
     16 C          59.2039   90.1026    6.2075 C.2     1  UNL1        0.3415
     17 C          60.1705   90.6149    5.1812 C.2     1  UNL1        0.0819
     18 C          59.8522   91.8592    4.4064 C.2     1  UNL1        0.0067
     19 C          60.8188   92.3716    3.3802 C.ar    1  UNL1        0.0004
     20 C          60.3911   93.4339    2.4114 C.ar    1  UNL1        0.0031
     21 C          61.3577   93.9462    1.3852 C.ar    1  UNL1        0.0366
     22 C          62.7521   93.3963    1.3277 C.ar    1  UNL1        0.1337
     23 O          63.7187   93.9087    0.3015 O.3     1  UNL1       -0.5055
     24 C          63.1798   92.3340    2.2965 C.ar    1  UNL1        0.0366
     25 C          62.2132   91.8216    3.3227 C.ar    1  UNL1        0.0031
     26 H          63.4515   94.5722   -0.3036 H       1  UNL1        0.2922
     27 O          61.9058   88.3717   12.4888 O.3     1  UNL1       -0.4441
     28 C          62.9231   89.4692   12.5923 C.ar    1  UNL1        0.2144
     29 C          63.7695   89.5935   13.8244 C.ar    1  UNL1        0.1822
     30 O          64.7868   90.6910   13.9279 O.2     1  UNL1       -0.4500
     31 C          64.9576   91.6642   12.7992 C.ar    1  UNL1        0.1545
     32 C          65.9748   92.7616   12.9026 C.ar    1  UNL1        0.0744
     33 C          66.1456   93.7347   11.7740 C.ar    1  UNL1        0.1397
     34 O          67.1629   94.8323   11.8774 O.3     1  UNL1       -0.5053
     35 C          65.2992   93.6104   10.5419 C.ar    1  UNL1        0.0735
     36 C          64.2819   92.5129   10.4385 C.ar    1  UNL1        0.1428
     37 O          63.4355   92.3886    9.2064 O.3     1  UNL1       -0.5052
     38 C          64.1112   91.5398   11.5671 C.ar    1  UNL1        0.1104
     39 C          63.0939   90.4423   11.4637 C.ar    1  UNL1        0.2382
     40 O          62.2474   90.3179   10.2316 O.2     1  UNL1       -0.2830
     41 H          67.6917   94.9100   12.6471 H       1  UNL1        0.2922
     42 H          63.5422   92.9964    8.5013 H       1  UNL1        0.2922
     43 C          63.5987   88.6204   14.9530 C.ar    1  UNL1        0.0379
     44 C          64.0789   87.2071   14.8039 C.ar    1  UNL1        0.0062
     45 C          63.9081   86.2340   15.9326 C.ar    1  UNL1        0.0367
     46 C          63.2572   86.6741   17.2103 C.ar    1  UNL1        0.1337
     47 O          63.0864   85.7010   18.3390 O.3     1  UNL1       -0.5055
     48 C          62.7770   88.0874   17.3594 C.ar    1  UNL1        0.0367
     49 C          62.9478   89.0605   16.2308 C.ar    1  UNL1        0.0062
     50 H          63.3863   84.8182   18.2458 H       1  UNL1        0.2922
@<TRIPOS>BOND
     1    15    16    2
     2    16    17    1
     3    17    18    2
     4    18    19    1
     5    19    20   ar
     6    20    21   ar
     7    21    22   ar
     8    22    23    1
     9    22    24   ar
    10    24    25   ar
    11    16    14    1
    12    14    13    1
    13     1    13    1
    14     1     2    1
    15     2     3    1
    16     3    27    1
    17    27    28    1
    18    28    29   ar
    19    29    43    1
    20    43    44   ar
    21    44    45   ar
    22    45    46   ar
    23    46    47    1
    24    46    48   ar
    25    48    49   ar
    26    29    30   ar
    27    30    31   ar
    28    31    32   ar
    29    32    33   ar
    30    33    34    1
    31    33    35   ar
    32    35    36   ar
    33    36    37    1
    34    36    38   ar
    35    38    39   ar
    36    39    40    2
    37     3     4    1
    38     4     5    1
    39     4     6    1
    40     6     7    1
    41     6     8    1
    42     8     9    1
    43    25    19   ar
    44     8     1    1
    45    39    28   ar
    46    49    43   ar
    47    38    31   ar
    48    23    26    1
    49    47    50    1
    50    34    41    1
    51    37    42    1
    52     5    10    1
    53     7    11    1
    54     9    12    1
@<TRIPOS>MOLECULE
*****
 50 54 0 0 0
SMALL
GASTEIGER

@<TRIPOS>ATOM
      1 C          61.0295   87.8513    8.9928 C.3     1  UNL1        0.1916
      2 O          62.0351   87.6332   10.0841 O.3     1  UNL1       -0.3147
      3 C          62.0395   88.5260   11.2894 C.3     1  UNL1        0.3183
      4 C          61.0382   89.6371   11.4033 C.3     1  UNL1        0.2105
      5 O          61.0425   90.5300   12.6086 O.3     1  UNL1       -0.3766
      6 C          60.0325   89.8553   10.3120 C.3     1  UNL1        0.1729
      7 O          59.0312   90.9663   10.4259 O.3     1  UNL1       -0.3793
      8 C          60.0282   88.9623    9.1067 C.3     1  UNL1        0.1707
      9 O          59.0225   89.1804    8.0153 O.3     1  UNL1       -0.3794
     10 H          61.7499   90.2546   13.2125 H       1  UNL1        0.2107
     11 H          58.4598   90.9682    9.6420 H       1  UNL1        0.2105
     12 H          58.4548   89.9328    8.2444 H       1  UNL1        0.2105
     13 C          61.0251   86.9584    7.7875 C.3     1  UNL1        0.2407
     14 O          61.5413   85.5540    7.8926 O.3     1  UNL1       -0.4427
     15 O          64.0684   86.1556    7.9376 O.2     1  UNL1       -0.2449
     16 C          62.9280   85.3011    8.4058 C.2     1  UNL1        0.3415
     17 C          63.1742   84.1936    9.3870 C.2     1  UNL1        0.0819
     18 C          62.7453   84.3485   10.8160 C.2     1  UNL1        0.0067
     19 C          62.9916   83.2410   11.7972 C.ar    1  UNL1        0.0004
     20 C          63.5311   83.5538   13.1614 C.ar    1  UNL1        0.0031
     21 C          63.7773   82.4463   14.1426 C.ar    1  UNL1        0.0366
     22 C          63.4840   81.0260   13.7597 C.ar    1  UNL1        0.1337
     23 O          63.7302   79.9185   14.7410 O.3     1  UNL1       -0.5055
     24 C          62.9444   80.7132   12.3955 C.ar    1  UNL1        0.0366
     25 C          62.6982   81.8207   11.4143 C.ar    1  UNL1        0.0031
     26 H          64.0672   80.1140   15.5931 H       1  UNL1        0.2922
     27 O          63.0451   88.3079   12.3808 O.3     1  UNL1       -0.4441
     28 C          63.8349   89.4657   12.9152 C.ar    1  UNL1        0.2144
     29 C          64.2474   89.4903   14.3572 C.ar    1  UNL1        0.1822
     30 O          65.0372   90.6481   14.8917 O.2     1  UNL1       -0.4500
     31 C          65.4145   91.7814   13.9842 C.ar    1  UNL1        0.1545
     32 C          66.2042   92.9392   14.5187 C.ar    1  UNL1        0.0744
     33 C          66.5815   94.0724   13.6113 C.ar    1  UNL1        0.1397
     34 O          67.3713   95.2303   14.1457 O.3     1  UNL1       -0.5053
     35 C          66.1689   94.0478   12.1693 C.ar    1  UNL1        0.0735
     36 C          65.3792   92.8900   11.6348 C.ar    1  UNL1        0.1428
     37 O          64.9666   92.8654   10.1929 O.3     1  UNL1       -0.5052
     38 C          65.0019   91.7568   12.5423 C.ar    1  UNL1        0.1104
     39 C          64.2121   90.5989   12.0078 C.ar    1  UNL1        0.2382
     40 O          63.7996   90.5743   10.5658 O.2     1  UNL1       -0.2830
     41 H          67.6290   95.2457   15.0465 H       1  UNL1        0.2922
     42 H          65.2023   93.5733    9.6260 H       1  UNL1        0.2922
     43 C          63.8702   88.3571   15.2646 C.ar    1  UNL1        0.0379
     44 C          63.1178   88.6306   16.5332 C.ar    1  UNL1        0.0062
     45 C          62.7405   87.4974   17.4406 C.ar    1  UNL1        0.0367
     46 C          63.1157   86.0907   17.0796 C.ar    1  UNL1        0.1337
     47 O          62.7385   84.9575   17.9872 O.3     1  UNL1       -0.5055
     48 C          63.8681   85.8171   15.8112 C.ar    1  UNL1        0.0367
     49 C          64.2454   86.9504   14.9037 C.ar    1  UNL1        0.0062
     50 H          62.2684   85.1284   18.7795 H       1  UNL1        0.2922
@<TRIPOS>BOND
     1    15    16    2
     2    16    17    1
     3    17    18    2
     4    18    19    1
     5    19    20   ar
     6    20    21   ar
     7    21    22   ar
     8    22    23    1
     9    22    24   ar
    10    24    25   ar
    11    16    14    1
    12    14    13    1
    13     1    13    1
    14     1     2    1
    15     2     3    1
    16     3    27    1
    17    27    28    1
    18    28    29   ar
    19    29    43    1
    20    43    44   ar
    21    44    45   ar
    22    45    46   ar
    23    46    47    1
    24    46    48   ar
    25    48    49   ar
    26    29    30   ar
    27    30    31   ar
    28    31    32   ar
    29    32    33   ar
    30    33    34    1
    31    33    35   ar
    32    35    36   ar
    33    36    37    1
    34    36    38   ar
    35    38    39   ar
    36    39    40    2
    37     3     4    1
    38     4     5    1
    39     4     6    1
    40     6     7    1
    41     6     8    1
    42     8     9    1
    43    25    19   ar
    44     8     1    1
    45    39    28   ar
    46    49    43   ar
    47    38    31   ar
    48    23    26    1
    49    47    50    1
    50    34    41    1
    51    37    42    1
    52     5    10    1
    53     7    11    1
    54     9    12    1
@<TRIPOS>MOLECULE
*****
 50 54 0 0 0
SMALL
GASTEIGER

@<TRIPOS>ATOM
      1 C          60.8486   89.1528    9.0693 C.3     1  UNL1        0.1916
      2 O          61.9386   88.5806    9.9263 O.3     1  UNL1       -0.3147
      3 C          61.9796   88.8899   11.3934 C.3     1  UNL1        0.3183
      4 C          60.9305   89.7714   12.0037 C.3     1  UNL1        0.2105
      5 O          60.9715   90.0807   13.4709 O.3     1  UNL1       -0.3766
      6 C          59.8405   90.3436   11.1468 C.3     1  UNL1        0.1729
      7 O          58.7914   91.2251   11.7570 O.3     1  UNL1       -0.3793
      8 C          59.7995   90.0343    9.6795 C.3     1  UNL1        0.1707
      9 O          58.7094   90.6065    8.8226 O.3     1  UNL1       -0.3794
     10 H          61.7334   89.6357   13.8740 H       1  UNL1        0.2107
     11 H          58.1672   91.5076   11.0704 H       1  UNL1        0.2105
     12 H          58.1196   91.1490    9.3691 H       1  UNL1        0.2105
     13 C          60.8076   88.8435    7.6022 C.3     1  UNL1        0.2407
     14 O          59.5065   88.9067    6.8584 O.3     1  UNL1       -0.4427
     15 O          57.8642   90.6768    5.8994 O.2     1  UNL1       -0.2449
     16 C          59.2276   90.0522    5.9310 C.2     1  UNL1        0.3415
     17 C          60.3121   90.5730    5.0351 C.2     1  UNL1        0.0819
     18 C          60.0537   91.7618    4.1577 C.2     1  UNL1        0.0067
     19 C          61.1383   92.2826    3.2618 C.ar    1  UNL1        0.0004
     20 C          62.4963   91.6458    3.2798 C.ar    1  UNL1        0.0031
     21 C          63.5808   92.1666    2.3840 C.ar    1  UNL1        0.0366
     22 C          63.3074   93.3242    1.4701 C.ar    1  UNL1        0.1337
     23 O          64.3919   93.8450    0.5743 O.3     1  UNL1       -0.5055
     24 C          61.9494   93.9610    1.4521 C.ar    1  UNL1        0.0366
     25 C          60.8649   93.4402    2.3480 C.ar    1  UNL1        0.0031
     26 H          65.2402   93.4473    0.5855 H       1  UNL1        0.2922
     27 O          63.0697   88.3177   12.2504 O.3     1  UNL1       -0.4441
     28 C          63.9345   89.2280   13.0710 C.ar    1  UNL1        0.2144
     29 C          64.3878   88.8026   14.4361 C.ar    1  UNL1        0.1822
     30 O          65.2526   89.7129   15.2566 O.2     1  UNL1       -0.4500
     31 C          65.6641   91.0487   14.7121 C.ar    1  UNL1        0.1545
     32 C          66.5289   91.9590   15.5327 C.ar    1  UNL1        0.0744
     33 C          66.9404   93.2947   14.9882 C.ar    1  UNL1        0.1397
     34 O          67.8052   94.2051   15.8088 O.3     1  UNL1       -0.5053
     35 C          66.4870   93.7201   13.6231 C.ar    1  UNL1        0.0735
     36 C          65.6222   92.8098   12.8025 C.ar    1  UNL1        0.1428
     37 O          65.1689   93.2352   11.4374 O.3     1  UNL1       -0.5052
     38 C          65.2108   91.4741   13.3470 C.ar    1  UNL1        0.1104
     39 C          64.3459   90.5637   12.5264 C.ar    1  UNL1        0.2382
     40 O          63.8926   90.9891   11.1613 O.2     1  UNL1       -0.2830
     41 H          68.0884   93.9394   16.6615 H       1  UNL1        0.2922
     42 H          65.4259   94.0696   11.0973 H       1  UNL1        0.2922
     43 C          63.9764   87.4669   14.9806 C.ar    1  UNL1        0.0379
     44 C          63.3244   87.3749   16.3284 C.ar    1  UNL1        0.0062
     45 C          62.9130   86.0392   16.8729 C.ar    1  UNL1        0.0367
     46 C          63.1535   84.7954   16.0697 C.ar    1  UNL1        0.1337
     47 O          62.7420   83.4597   16.6143 O.3     1  UNL1       -0.5055
     48 C          63.8054   84.8874   14.7219 C.ar    1  UNL1        0.0367
     49 C          64.2168   86.2231   14.1773 C.ar    1  UNL1        0.0062
     50 H          62.3347   83.4023   17.4562 H       1  UNL1        0.2922
@<TRIPOS>BOND
     1    15    16    2
     2    16    17    1
     3    17    18    2
     4    18    19    1
     5    19    20   ar
     6    20    21   ar
     7    21    22   ar
     8    22    23    1
     9    22    24   ar
    10    24    25   ar
    11    16    14    1
    12    14    13    1
    13     1    13    1
    14     1     2    1
    15     2     3    1
    16     3    27    1
    17    27    28    1
    18    28    29   ar
    19    29    43    1
    20    43    44   ar
    21    44    45   ar
    22    45    46   ar
    23    46    47    1
    24    46    48   ar
    25    48    49   ar
    26    29    30   ar
    27    30    31   ar
    28    31    32   ar
    29    32    33   ar
    30    33    34    1
    31    33    35   ar
    32    35    36   ar
    33    36    37    1
    34    36    38   ar
    35    38    39   ar
    36    39    40    2
    37     3     4    1
    38     4     5    1
    39     4     6    1
    40     6     7    1
    41     6     8    1
    42     8     9    1
    43    25    19   ar
    44     8     1    1
    45    39    28   ar
    46    49    43   ar
    47    38    31   ar
    48    23    26    1
    49    47    50    1
    50    34    41    1
    51    37    42    1
    52     5    10    1
    53     7    11    1
    54     9    12    1
@<TRIPOS>MOLECULE
*****
 50 54 0 0 0
SMALL
GASTEIGER

@<TRIPOS>ATOM
      1 C          62.2366   87.0154   10.6596 C.3     1  UNL1        0.1916
      2 O          62.4994   87.6878   11.9744 O.3     1  UNL1       -0.3147
      3 C          61.9844   89.0744   12.2238 C.3     1  UNL1        0.3183
      4 C          61.2067   89.7886   11.1583 C.3     1  UNL1        0.2105
      5 O          60.6918   91.1752   11.4077 O.3     1  UNL1       -0.3766
      6 C          60.9440   89.1161    9.8435 C.3     1  UNL1        0.1729
      7 O          60.1664   89.8303    8.7780 O.3     1  UNL1       -0.3793
      8 C          61.4590   87.7295    9.5941 C.3     1  UNL1        0.1707
      9 O          61.1963   87.0571    8.2793 O.3     1  UNL1       -0.3794
     10 H          60.9470   91.4593   12.2993 H       1  UNL1        0.2107
     11 H          60.0875   89.2594    7.9978 H       1  UNL1        0.2105
     12 H          60.6846   87.6516    7.7086 H       1  UNL1        0.2105
     13 C          62.7516   85.6288   10.4102 C.3     1  UNL1        0.2407
     14 O          63.4563   84.8825   11.5040 O.3     1  UNL1       -0.4427
     15 O          61.9506   84.7350   13.6161 O.2     1  UNL1       -0.2449
     16 C          62.6672   84.0636   12.4822 C.2     1  UNL1        0.3415
     17 C          62.5948   82.5735   12.3266 C.2     1  UNL1        0.0819
     18 C          62.9926   81.9348   11.0290 C.2     1  UNL1        0.0067
     19 C          62.9201   80.4446   10.8733 C.ar    1  UNL1        0.0004
     20 C          63.1246   79.8206    9.5247 C.ar    1  UNL1        0.0031
     21 C          63.0522   78.3305    9.3691 C.ar    1  UNL1        0.0366
     22 C          62.7753   77.4643   10.5620 C.ar    1  UNL1        0.1337
     23 O          62.7029   75.9742   10.4063 O.3     1  UNL1       -0.5055
     24 C          62.5709   78.0884   11.9106 C.ar    1  UNL1        0.0366
     25 C          62.6433   79.5785   12.0662 C.ar    1  UNL1        0.0031
     26 H          62.8306   75.5844    9.5639 H       1  UNL1        0.2922
     27 O          62.2472   89.7468   13.5386 O.3     1  UNL1       -0.4441
     28 C          63.6312   90.2147   13.8785 C.ar    1  UNL1        0.2144
     29 C          64.4558   89.4556   14.8754 C.ar    1  UNL1        0.1822
     30 O          65.8399   89.9234   15.2152 O.2     1  UNL1       -0.4500
     31 C          66.3994   91.1504   14.5581 C.ar    1  UNL1        0.1545
     32 C          67.7834   91.6182   14.8979 C.ar    1  UNL1        0.0744
     33 C          68.3428   92.8450   14.2408 C.ar    1  UNL1        0.1397
     34 O          69.7270   93.3129   14.5806 O.3     1  UNL1       -0.5053
     35 C          67.5182   93.6041   13.2438 C.ar    1  UNL1        0.0735
     36 C          66.1342   93.1362   12.9040 C.ar    1  UNL1        0.1428
     37 O          65.3095   93.8953   11.9071 O.3     1  UNL1       -0.5052
     38 C          65.5747   91.9094   13.5611 C.ar    1  UNL1        0.1104
     39 C          64.1906   91.4415   13.2213 C.ar    1  UNL1        0.2382
     40 O          63.3660   92.2005   12.2244 O.2     1  UNL1       -0.2830
     41 H          70.2421   92.8388   15.2033 H       1  UNL1        0.2922
     42 H          65.6590   94.6617   11.4966 H       1  UNL1        0.2922
     43 C          63.8964   88.2288   15.5325 C.ar    1  UNL1        0.0379
     44 C          62.9647   88.3622   16.7005 C.ar    1  UNL1        0.0062
     45 C          62.4053   87.1354   17.3576 C.ar    1  UNL1        0.0367
     46 C          62.7775   85.7750   16.8468 C.ar    1  UNL1        0.1337
     47 O          62.2181   84.5481   17.5040 O.3     1  UNL1       -0.5055
     48 C          63.7093   85.6416   15.6789 C.ar    1  UNL1        0.0367
     49 C          64.2687   86.8684   15.0217 C.ar    1  UNL1        0.0062
     50 H          61.6361   84.6315   18.2335 H       1  UNL1        0.2922
@<TRIPOS>BOND
     1    15    16    2
     2    16    17    1
     3    17    18    2
     4    18    19    1
     5    19    20   ar
     6    20    21   ar
     7    21    22   ar
     8    22    23    1
     9    22    24   ar
    10    24    25   ar
    11    16    14    1
    12    14    13    1
    13     1    13    1
    14     1     2    1
    15     2     3    1
    16     3    27    1
    17    27    28    1
    18    28    29   ar
    19    29    43    1
    20    43    44   ar
    21    44    45   ar
    22    45    46   ar
    23    46    47    1
    24    46    48   ar
    25    48    49   ar
    26    29    30   ar
    27    30    31   ar
    28    31    32   ar
    29    32    33   ar
    30    33    34    1
    31    33    35   ar
    32    35    36   ar
    33    36    37    1
    34    36    38   ar
    35    38    39   ar
    36    39    40    2
    37     3     4    1
    38     4     5    1
    39     4     6    1
    40     6     7    1
    41     6     8    1
    42     8     9    1
    43    25    19   ar
    44     8     1    1
    45    39    28   ar
    46    49    43   ar
    47    38    31   ar
    48    23    26    1
    49    47    50    1
    50    34    41    1
    51    37    42    1
    52     5    10    1
    53     7    11    1
    54     9    12    1
