@<TRIPOS>MOLECULE
*****
 34 37 0 0 0
SMALL
GASTEIGER

@<TRIPOS>ATOM
      1 C          63.8078   84.0300   15.1898 C.3     1  UNL1        0.0518
      2 C          63.6155   85.1991   14.2698 C.ar    1  UNL1        0.0568
      3 N          63.9325   86.5865   14.7439 N.ar    1  UNL1       -0.2456
      4 C          63.7402   87.7556   13.8241 C.ar    1  UNL1        0.1319
      5 C          63.2309   87.5374   12.4302 C.ar    1  UNL1        0.0196
      6 C          62.9139   86.1501   11.9561 C.ar    1  UNL1       -0.0015
      7 C          63.1062   84.9809   12.8760 C.ar    1  UNL1        0.0068
      8 C          63.1419   88.8737   11.7546 C.3     1  UNL1        0.1226
      9 N          63.5963   89.9178   12.7311 N.am    1  UNL1       -0.2623
     10 C          63.9660   89.2268   14.0101 C.2     1  UNL1        0.2671
     11 O          64.4726   89.8905   15.2562 O.2     1  UNL1       -0.2682
     12 C          62.4046   85.9318   10.5621 C.ar    1  UNL1        0.0102
     13 C          63.2292   85.1605    9.5746 C.ar    1  UNL1        0.0017
     14 C          62.7200   84.9422    8.1807 C.ar    1  UNL1        0.0114
     15 C          61.3862   85.4952    7.7744 C.ar    1  UNL1        0.0585
     16 CL         60.8770   85.2768    6.3804 Cl      1  UNL1       -0.0822
     17 C          60.5616   86.2665    8.7618 C.ar    1  UNL1        0.0228
     18 C          61.0708   86.4848   10.1558 C.ar    1  UNL1        0.0585
     19 CL         60.2463   87.2561   11.1433 Cl      1  UNL1       -0.0822
     20 C          62.7893   83.5935   12.4019 C.3     1  UNL1        0.0934
     21 N          63.8966   82.6738   11.9801 N.3     1  UNL1       -0.3174
     22 H          64.3440   83.0428   11.1410 H       1  UNL1        0.1192
     23 H          63.5139   81.7491   11.7826 H       1  UNL1        0.1192
     24 C          63.6683   91.3938   12.4738 C.3     1  UNL1        0.1800
     25 C          64.9669   92.0207   12.0606 C.2     1  UNL1        0.2475
     26 O          65.9877   92.3839   13.0978 O.2     1  UNL1       -0.2729
     27 N          65.2446   92.2843   10.6103 N.am    1  UNL1       -0.2681
     28 H          64.5746   92.0459    9.9295 H       1  UNL1        0.1563
     29 C          66.5433   92.9111   10.1973 C.ar    1  UNL1        0.1327
     30 C          67.7862   92.1772    9.7894 C.ar    1  UNL1        0.0565
     31 C          68.8380   93.1945    9.4597 C.ar    1  UNL1        0.1230
     32 N          68.2452   94.5572    9.6638 N.ar    1  UNL1       -0.1665
     33 N          66.8269   94.3820   10.1196 N.ar    1  UNL1       -0.2355
     34 C          65.8617   95.4843   10.4414 C.3     1  UNL1        0.1552
@<TRIPOS>BOND
     1     1     2    1
     2     2     3   ar
     3     3     4   ar
     4     4     5   ar
     5     5     6   ar
     6     6    12    1
     7    12    13   ar
     8    13    14   ar
     9    14    15   ar
    10    15    16    1
    11    15    17   ar
    12    17    18   ar
    13    18    19    1
    14     6     7   ar
    15     7    20    1
    16    20    21    1
    17     5     8    1
    18     8     9    1
    19     9    24    1
    20    24    25    1
    21    25    26    2
    22    25    27   am
    23    27    29    1
    24    29    30   ar
    25    30    31   ar
    26    31    32   ar
    27    32    33   ar
    28    33    34    1
    29     9    10   am
    30    10    11    2
    31     7     2   ar
    32    33    29   ar
    33    10     4    1
    34    18    12   ar
    35    21    22    1
    36    21    23    1
    37    27    28    1
@<TRIPOS>MOLECULE
*****
 34 37 0 0 0
SMALL
GASTEIGER

@<TRIPOS>ATOM
      1 C          63.4794   83.5865   15.1527 C.3     1  UNL1        0.0518
      2 C          63.3793   84.7865   14.2583 C.ar    1  UNL1        0.0568
      3 N          63.6801   86.1527   14.7998 N.ar    1  UNL1       -0.2456
      4 C          63.5801   87.3527   13.9054 C.ar    1  UNL1        0.1319
      5 C          63.1792   87.1866   12.4695 C.ar    1  UNL1        0.0196
      6 C          62.8784   85.8205   11.9280 C.ar    1  UNL1       -0.0015
      7 C          62.9785   84.6204   12.8225 C.ar    1  UNL1        0.0068
      8 C          63.1656   88.5443   11.8320 C.3     1  UNL1        0.1226
      9 N          63.5580   89.5495   12.8738 N.am    1  UNL1       -0.2623
     10 C          63.8141   88.8131   14.1553 C.2     1  UNL1        0.2671
     11 O          64.2312   89.4289   15.4579 O.2     1  UNL1       -0.2682
     12 C          62.4776   85.6543   10.4921 C.ar    1  UNL1        0.0102
     13 C          63.3525   84.8762    9.5545 C.ar    1  UNL1        0.0017
     14 C          62.9517   84.7099    8.1186 C.ar    1  UNL1        0.0114
     15 C          61.6761   85.3218    7.6204 C.ar    1  UNL1        0.0585
     16 CL         61.2753   85.1556    6.1845 Cl      1  UNL1       -0.0822
     17 C          60.8012   86.0999    8.5580 C.ar    1  UNL1        0.0228
     18 C          61.2019   86.2662    9.9939 C.ar    1  UNL1        0.0585
     19 CL         60.3271   87.0443   10.9315 Cl      1  UNL1       -0.0822
     20 C          62.6777   83.2542   12.2809 C.3     1  UNL1        0.0934
     21 N          63.7999   82.3276   11.9178 N.3     1  UNL1       -0.3174
     22 H          64.3179   82.7138   11.1286 H       1  UNL1        0.1192
     23 H          63.4193   81.4166   11.6617 H       1  UNL1        0.1192
     24 C          63.6739   91.0311   12.6701 C.3     1  UNL1        0.1800
     25 C          64.9277   91.7480   13.0751 C.2     1  UNL1        0.2475
     26 O          65.3579   92.9813   12.3376 O.2     1  UNL1       -0.2729
     27 N          65.7512   91.2317   14.2176 N.am    1  UNL1       -0.2681
     28 H          65.4689   90.4223   14.7017 H       1  UNL1        0.1563
     29 C          67.0050   91.9487   14.6225 C.ar    1  UNL1        0.1327
     30 C          67.2324   92.6612   15.9227 C.ar    1  UNL1        0.0565
     31 C          68.6194   93.2319   15.9021 C.ar    1  UNL1        0.1230
     32 N          69.2493   92.8721   14.5890 N.ar    1  UNL1       -0.1665
     33 N          68.2514   92.0791   13.7983 N.ar    1  UNL1       -0.2355
     34 C          68.4629   91.5153   12.4244 C.3     1  UNL1        0.1552
@<TRIPOS>BOND
     1     1     2    1
     2     2     3   ar
     3     3     4   ar
     4     4     5   ar
     5     5     6   ar
     6     6    12    1
     7    12    13   ar
     8    13    14   ar
     9    14    15   ar
    10    15    16    1
    11    15    17   ar
    12    17    18   ar
    13    18    19    1
    14     6     7   ar
    15     7    20    1
    16    20    21    1
    17     5     8    1
    18     8     9    1
    19     9    24    1
    20    24    25    1
    21    25    26    2
    22    25    27   am
    23    27    29    1
    24    29    30   ar
    25    30    31   ar
    26    31    32   ar
    27    32    33   ar
    28    33    34    1
    29     9    10   am
    30    10    11    2
    31     7     2   ar
    32    33    29   ar
    33    10     4    1
    34    18    12   ar
    35    21    22    1
    36    21    23    1
    37    27    28    1
@<TRIPOS>MOLECULE
*****
 34 37 0 0 0
SMALL
GASTEIGER

@<TRIPOS>ATOM
      1 C          59.0751   88.2288    7.4377 C.3     1  UNL1        0.0518
      2 C          60.1094   88.1994    8.5237 C.ar    1  UNL1        0.0568
      3 N          60.5513   89.4772    9.1733 N.ar    1  UNL1       -0.2456
      4 C          61.5855   89.4478   10.2593 C.ar    1  UNL1        0.1319
      5 C          62.1779   88.1407   10.6958 C.ar    1  UNL1        0.0196
      6 C          61.7360   86.8629   10.0462 C.ar    1  UNL1       -0.0015
      7 C          60.7017   86.8923    8.9601 C.ar    1  UNL1        0.0068
      8 C          63.1715   88.4222   11.7836 C.3     1  UNL1        0.1226
      9 N          63.1932   89.9034   12.0195 N.am    1  UNL1       -0.2623
     10 C          62.2130   90.5373   11.0775 C.2     1  UNL1        0.2671
     11 O          61.9130   92.0032   10.9721 O.2     1  UNL1       -0.2682
     12 C          62.3284   85.5557   10.4826 C.ar    1  UNL1        0.0102
     13 C          62.0181   85.0093   11.8446 C.ar    1  UNL1        0.0017
     14 C          62.6104   83.7021   12.2811 C.ar    1  UNL1        0.0114
     15 C          63.5129   82.9414   11.3554 C.ar    1  UNL1        0.0585
     16 CL         64.1052   81.6342   11.7919 Cl      1  UNL1       -0.0822
     17 C          63.8232   83.4878    9.9934 C.ar    1  UNL1        0.0228
     18 C          63.2309   84.7950    9.5570 C.ar    1  UNL1        0.0585
     19 CL         63.5411   85.3415    8.1949 Cl      1  UNL1       -0.0822
     20 C          60.2598   85.6144    8.3105 C.3     1  UNL1        0.0934
     21 N          60.5744   85.3595    6.8662 N.3     1  UNL1       -0.3174
     22 H          60.0707   86.0295    6.2851 H       1  UNL1        0.1192
     23 H          60.2890   84.4121    6.6182 H       1  UNL1        0.1192
     24 C          64.0454   90.6242   13.0216 C.3     1  UNL1        0.1800
     25 C          64.8927   91.7841   12.5894 C.2     1  UNL1        0.2475
     26 O          65.5296   92.6717   13.6172 O.2     1  UNL1       -0.2729
     27 N          65.1030   92.0564   11.1293 N.am    1  UNL1       -0.2681
     28 H          64.6850   91.4739   10.4547 H       1  UNL1        0.1563
     29 C          65.9503   93.2163   10.6972 C.ar    1  UNL1        0.1327
     30 C          65.5572   94.6630   10.7489 C.ar    1  UNL1        0.0565
     31 C          66.7034   95.4739   10.2211 C.ar    1  UNL1        0.1230
     32 N          67.8050   94.5284    9.8432 N.ar    1  UNL1       -0.1665
     33 N          67.3394   93.1332   10.1375 N.ar    1  UNL1       -0.2355
     34 C          68.1252   91.8755    9.9117 C.3     1  UNL1        0.1552
@<TRIPOS>BOND
     1     1     2    1
     2     2     3   ar
     3     3     4   ar
     4     4     5   ar
     5     5     6   ar
     6     6    12    1
     7    12    13   ar
     8    13    14   ar
     9    14    15   ar
    10    15    16    1
    11    15    17   ar
    12    17    18   ar
    13    18    19    1
    14     6     7   ar
    15     7    20    1
    16    20    21    1
    17     5     8    1
    18     8     9    1
    19     9    24    1
    20    24    25    1
    21    25    26    2
    22    25    27   am
    23    27    29    1
    24    29    30   ar
    25    30    31   ar
    26    31    32   ar
    27    32    33   ar
    28    33    34    1
    29     9    10   am
    30    10    11    2
    31     7     2   ar
    32    33    29   ar
    33    10     4    1
    34    18    12   ar
    35    21    22    1
    36    21    23    1
    37    27    28    1
@<TRIPOS>MOLECULE
*****
 34 37 0 0 0
SMALL
GASTEIGER

@<TRIPOS>ATOM
      1 C          63.3850   81.0567   11.3010 C.3     1  UNL1        0.0518
      2 C          63.1339   82.5156   11.5431 C.ar    1  UNL1        0.0568
      3 N          62.9019   83.4391   10.3841 N.ar    1  UNL1       -0.2456
      4 C          62.6508   84.8980   10.6262 C.ar    1  UNL1        0.1319
      5 C          62.6317   85.4334   12.0273 C.ar    1  UNL1        0.0196
      6 C          62.8636   84.5099   13.1863 C.ar    1  UNL1       -0.0015
      7 C          63.1147   83.0509   12.9441 C.ar    1  UNL1        0.0068
      8 C          62.3606   86.9070   11.9568 C.3     1  UNL1        0.1226
      9 N          62.2121   87.2823   10.5121 N.am    1  UNL1       -0.2623
     10 C          62.3915   86.0408    9.6898 C.2     1  UNL1        0.2671
     11 O          62.3236   85.9567    8.1937 O.2     1  UNL1       -0.2682
     12 C          62.8445   85.0452   14.5874 C.ar    1  UNL1        0.0102
     13 C          61.5545   85.1026   15.3507 C.ar    1  UNL1        0.0017
     14 C          61.5353   85.6379   16.7519 C.ar    1  UNL1        0.0114
     15 C          62.8061   86.1157   17.3896 C.ar    1  UNL1        0.0585
     16 CL         62.7869   86.6509   18.7907 Cl      1  UNL1       -0.0822
     17 C          64.0961   86.0582   16.6263 C.ar    1  UNL1        0.0228
     18 C          64.1153   85.5230   15.2252 C.ar    1  UNL1        0.0585
     19 CL         65.4053   85.4655   14.4619 Cl      1  UNL1       -0.0822
     20 C          63.3467   82.1273   14.1032 C.3     1  UNL1        0.0934
     21 N          62.1796   81.5187   14.8224 N.3     1  UNL1       -0.3174
     22 H          61.6495   82.2526   15.2924 H       1  UNL1        0.1192
     23 H          62.5176   80.8482   15.5128 H       1  UNL1        0.1192
     24 C          61.9332   88.6578    9.9827 C.3     1  UNL1        0.1800
     25 C          62.7059   89.8331   10.5042 C.2     1  UNL1        0.2475
     26 O          62.7966   91.0909    9.6920 O.2     1  UNL1       -0.2729
     27 N          63.3878   89.7505   11.8377 N.am    1  UNL1       -0.2681
     28 H          63.3282   88.9249   12.3707 H       1  UNL1        0.1563
     29 C          64.1604   90.9258   12.3590 C.ar    1  UNL1        0.1327
     30 C          64.8728   91.9514   11.5280 C.ar    1  UNL1        0.0565
     31 C          65.5089   92.9412   12.4583 C.ar    1  UNL1        0.1230
     32 N          65.1896   92.5274   13.8644 N.ar    1  UNL1       -0.1665
     33 N          64.3562   91.2817   13.8029 N.ar    1  UNL1       -0.2355
     34 C          63.8138   90.5250   14.9790 C.3     1  UNL1        0.1552
@<TRIPOS>BOND
     1     1     2    1
     2     2     3   ar
     3     3     4   ar
     4     4     5   ar
     5     5     6   ar
     6     6    12    1
     7    12    13   ar
     8    13    14   ar
     9    14    15   ar
    10    15    16    1
    11    15    17   ar
    12    17    18   ar
    13    18    19    1
    14     6     7   ar
    15     7    20    1
    16    20    21    1
    17     5     8    1
    18     8     9    1
    19     9    24    1
    20    24    25    1
    21    25    26    2
    22    25    27   am
    23    27    29    1
    24    29    30   ar
    25    30    31   ar
    26    31    32   ar
    27    32    33   ar
    28    33    34    1
    29     9    10   am
    30    10    11    2
    31     7     2   ar
    32    33    29   ar
    33    10     4    1
    34    18    12   ar
    35    21    22    1
    36    21    23    1
    37    27    28    1
@<TRIPOS>MOLECULE
*****
 34 37 0 0 0
SMALL
GASTEIGER

@<TRIPOS>ATOM
      1 C          60.0486   89.3300    8.2358 C.3     1  UNL1        0.0518
      2 C          60.9097   88.8181    9.3523 C.ar    1  UNL1        0.0568
      3 N          61.4199   89.7630   10.3996 N.ar    1  UNL1       -0.2456
      4 C          62.2809   89.2512   11.5161 C.ar    1  UNL1        0.1319
      5 C          62.6319   87.7945   11.5853 C.ar    1  UNL1        0.0196
      6 C          62.1217   86.8495   10.5380 C.ar    1  UNL1       -0.0015
      7 C          61.2606   87.3615    9.4215 C.ar    1  UNL1        0.0068
      8 C          63.4932   87.5821   12.7948 C.3     1  UNL1        0.1226
      9 N          63.6747   88.9075   13.4731 N.am    1  UNL1       -0.2623
     10 C          62.9254   89.9391   12.6829 C.2     1  UNL1        0.2671
     11 O          62.8363   91.4018   13.0032 O.2     1  UNL1       -0.2682
     12 C          62.4726   85.3928   10.6071 C.ar    1  UNL1        0.0102
     13 C          62.0854   84.5844   11.8098 C.ar    1  UNL1        0.0017
     14 C          62.4363   83.1276   11.8790 C.ar    1  UNL1        0.0114
     15 C          63.1743   82.4793   10.7454 C.ar    1  UNL1        0.0585
     16 CL         63.5252   81.0226   10.8146 Cl      1  UNL1       -0.0822
     17 C          63.5615   83.2877    9.5427 C.ar    1  UNL1        0.0228
     18 C          63.2107   84.7445    9.4735 C.ar    1  UNL1        0.0585
     19 CL         63.5979   85.5529    8.2708 Cl      1  UNL1       -0.0822
     20 C          60.7505   86.4165    8.3741 C.3     1  UNL1        0.0934
     21 N          59.2747   86.2760    8.1455 N.3     1  UNL1       -0.3174
     22 H          58.8401   85.8655    8.9720 H       1  UNL1        0.1192
     23 H          59.1113   85.6720    7.3400 H       1  UNL1        0.1192
     24 C          64.4663   89.1576   14.7224 C.3     1  UNL1        0.1800
     25 C          65.0851   90.5029   14.9616 C.2     1  UNL1        0.2475
     26 O          64.2716   91.6046   15.5735 O.2     1  UNL1       -0.2729
     27 N          66.5175   90.7467   14.5888 N.am    1  UNL1       -0.2681
     28 H          67.0515   90.0237   14.1871 H       1  UNL1        0.1563
     29 C          67.1362   92.0920   14.8279 C.ar    1  UNL1        0.1327
     30 C          68.0693   92.4469   15.9474 C.ar    1  UNL1        0.0565
     31 C          68.4402   93.8929   15.8009 C.ar    1  UNL1        0.1230
     32 N          67.7363   94.4318   14.5907 N.ar    1  UNL1       -0.1665
     33 N          66.9304   93.3186   13.9895 N.ar    1  UNL1       -0.2355
     34 C          66.0698   93.4153   12.7647 C.3     1  UNL1        0.1552
@<TRIPOS>BOND
     1     1     2    1
     2     2     3   ar
     3     3     4   ar
     4     4     5   ar
     5     5     6   ar
     6     6    12    1
     7    12    13   ar
     8    13    14   ar
     9    14    15   ar
    10    15    16    1
    11    15    17   ar
    12    17    18   ar
    13    18    19    1
    14     6     7   ar
    15     7    20    1
    16    20    21    1
    17     5     8    1
    18     8     9    1
    19     9    24    1
    20    24    25    1
    21    25    26    2
    22    25    27   am
    23    27    29    1
    24    29    30   ar
    25    30    31   ar
    26    31    32   ar
    27    32    33   ar
    28    33    34    1
    29     9    10   am
    30    10    11    2
    31     7     2   ar
    32    33    29   ar
    33    10     4    1
    34    18    12   ar
    35    21    22    1
    36    21    23    1
    37    27    28    1
@<TRIPOS>MOLECULE
*****
 34 37 0 0 0
SMALL
GASTEIGER

@<TRIPOS>ATOM
      1 C          63.2147   91.0545   12.2253 C.3     1  UNL1        0.0518
      2 C          63.1470   89.5562   12.1983 C.ar    1  UNL1        0.0568
      3 N          63.5386   88.7658   13.4116 N.ar    1  UNL1       -0.2456
      4 C          63.4709   87.2676   13.3847 C.ar    1  UNL1        0.1319
      5 C          63.0117   86.5598   12.1445 C.ar    1  UNL1        0.0196
      6 C          62.6202   87.3501   10.9312 C.ar    1  UNL1       -0.0015
      7 C          62.6879   88.8484   10.9582 C.ar    1  UNL1        0.0068
      8 C          63.0477   85.0844   12.4126 C.3     1  UNL1        0.1226
      9 N          63.5291   84.8804   13.8185 N.am    1  UNL1       -0.2623
     10 C          63.7907   86.2297   14.4193 C.2     1  UNL1        0.2671
     11 O          64.2852   86.4945   15.8104 O.2     1  UNL1       -0.2682
     12 C          62.1610   86.6423    9.6909 C.ar    1  UNL1        0.0102
     13 C          63.1473   85.8889    8.8487 C.ar    1  UNL1        0.0017
     14 C          62.6882   85.1811    7.6084 C.ar    1  UNL1        0.0114
     15 C          61.2427   85.2267    7.2105 C.ar    1  UNL1        0.0585
     16 CL         60.7836   84.5189    5.9703 Cl      1  UNL1       -0.0822
     17 C          60.2563   85.9802    8.0528 C.ar    1  UNL1        0.0228
     18 C          60.7155   86.6880    9.2930 C.ar    1  UNL1        0.0585
     19 CL         59.7291   87.4414   10.1353 Cl      1  UNL1       -0.0822
     20 C          62.2963   89.6388    9.7449 C.3     1  UNL1        0.0934
     21 N          61.0177   90.4231    9.7412 N.3     1  UNL1       -0.3174
     22 H          60.2256   89.7824    9.7904 H       1  UNL1        0.1192
     23 H          60.9581   90.9722    8.8837 H       1  UNL1        0.1192
     24 C          63.7161   83.5591   14.5034 C.3     1  UNL1        0.1800
     25 C          63.6930   82.2900   13.7041 C.2     1  UNL1        0.2475
     26 O          64.4951   81.1052   14.1546 O.2     1  UNL1       -0.2729
     27 N          62.8679   82.2057   12.4542 N.am    1  UNL1       -0.2681
     28 H          62.3414   82.9833   12.1585 H       1  UNL1        0.1563
     29 C          62.8449   80.9366   11.6549 C.ar    1  UNL1        0.1327
     30 C          63.2157   80.7990   10.2080 C.ar    1  UNL1        0.0565
     31 C          63.0470   79.3597    9.8212 C.ar    1  UNL1        0.1230
     32 N          62.5719   78.6076   11.0290 N.ar    1  UNL1       -0.1665
     33 N          62.4470   79.5823   12.1623 N.ar    1  UNL1       -0.2355
     34 C          62.0023   79.2592   13.5580 C.3     1  UNL1        0.1552
@<TRIPOS>BOND
     1     1     2    1
     2     2     3   ar
     3     3     4   ar
     4     4     5   ar
     5     5     6   ar
     6     6    12    1
     7    12    13   ar
     8    13    14   ar
     9    14    15   ar
    10    15    16    1
    11    15    17   ar
    12    17    18   ar
    13    18    19    1
    14     6     7   ar
    15     7    20    1
    16    20    21    1
    17     5     8    1
    18     8     9    1
    19     9    24    1
    20    24    25    1
    21    25    26    2
    22    25    27   am
    23    27    29    1
    24    29    30   ar
    25    30    31   ar
    26    31    32   ar
    27    32    33   ar
    28    33    34    1
    29     9    10   am
    30    10    11    2
    31     7     2   ar
    32    33    29   ar
    33    10     4    1
    34    18    12   ar
    35    21    22    1
    36    21    23    1
    37    27    28    1
