@<TRIPOS>MOLECULE
*****
 35 38 0 0 0
SMALL
GASTEIGER

@<TRIPOS>ATOM
      1 C          64.6855   85.5683   14.7599 C.2     1  UNL1        0.2015
      2 O          66.1734   85.3984   14.8442 O.2     1  UNL1       -0.2864
      3 C          63.9890   86.5406   15.6653 C.ar    1  UNL1        0.0611
      4 C          63.1455   86.1889   16.8548 C.ar    1  UNL1        0.1037
      5 N          62.6490   87.4662   17.4647 N.ar    1  UNL1       -0.2269
      6 C          63.1856   88.6072   16.6523 C.ar    1  UNL1        0.1407
      7 N          63.0272   90.0932   16.7815 N.ar    1  UNL1       -0.3374
      8 C          63.6969   91.0071   15.7985 C.ar    1  UNL1        0.0735
      9 C          64.5250   90.4350   14.6864 C.ar    1  UNL1        0.0186
     10 C          64.6835   88.9490   14.5572 C.ar    1  UNL1        0.0047
     11 C          64.0138   88.0351   15.5401 C.ar    1  UNL1        0.0386
     12 H          62.4836   90.4686   17.5114 H       1  UNL1        0.1674
     13 C          65.1948   91.3490   13.7034 C.ar    1  UNL1        0.0208
     14 C          64.5091   91.6973   12.4156 C.ar    1  UNL1        0.0055
     15 C          65.1788   92.6113   11.4326 C.ar    1  UNL1        0.0497
     16 C          66.5342   93.1769   11.7375 C.ar    1  UNL1        0.2223
     17 F          67.2039   94.0909   10.7546 F       1  UNL1       -0.1832
     18 N          67.2199   92.8286   13.0254 N.ar    1  UNL1       -0.2165
     19 C          66.5501   91.9146   14.0083 C.ar    1  UNL1        0.1013
     20 C          62.5428   84.6244   11.5555 C.ar    1  UNL1        0.0920
     21 C          62.3109   83.1612   11.7905 C.ar    1  UNL1        0.0204
     22 C          62.8705   82.5004   13.0153 C.ar    1  UNL1        0.0312
     23 C          63.6620   83.3027   14.0051 C.ar    1  UNL1        0.1454
     24 F          64.2216   82.6419   15.2299 F       1  UNL1       -0.2040
     25 C          63.8939   84.7659   13.7701 C.ar    1  UNL1        0.0951
     26 C          63.3343   85.4267   12.5453 C.ar    1  UNL1        0.1598
     27 F          63.5663   86.8900   12.3103 F       1  UNL1       -0.2026
     28 N          61.9832   85.2853   10.3307 N.pl3   1  UNL1       -0.2166
     29 H          61.8284   84.7578    9.5140 H       1  UNL1        0.1734
     30 S          61.6596   86.7498   10.3502 S.O2    1  UNL1        0.0540
     31 O          62.5043   86.9527    9.1274 O.2     1  UNL1       -0.1545
     32 O          60.8149   86.5468   11.5730 O.2     1  UNL1       -0.1545
     33 C          61.3359   88.2143   10.3698 C.3     1  UNL1        0.1724
     34 C          62.2204   90.6373   10.0580 C.3     1  UNL1        0.0019
     35 C          62.4364   89.2238   10.5113 C.3     1  UNL1        0.0273
@<TRIPOS>BOND
     1    34    35    1
     2    35    33    1
     3    33    30    1
     4    30    31    2
     5    30    32    2
     6    30    28    1
     7    28    20    1
     8    20    21   ar
     9    21    22   ar
    10    22    23   ar
    11    23    24    1
    12    23    25   ar
    13    25     1    1
    14     1     2    2
    15     1     3    1
    16     3     4   ar
    17     4     5   ar
    18     5     6   ar
    19     6     7   ar
    20     7     8   ar
    21     8     9   ar
    22     9    13    1
    23    13    14   ar
    24    14    15   ar
    25    15    16   ar
    26    16    17    1
    27    16    18   ar
    28    18    19   ar
    29     9    10   ar
    30    10    11   ar
    31    25    26   ar
    32    26    27    1
    33    26    20   ar
    34    11     3   ar
    35    11     6    1
    36    19    13   ar
    37    28    29    1
    38     7    12    1
@<TRIPOS>MOLECULE
*****
 35 38 0 0 0
SMALL
GASTEIGER

@<TRIPOS>ATOM
      1 C          63.1056   90.4206   13.0163 C.2     1  UNL1        0.2015
      2 O          62.5759   90.1233   14.3877 O.2     1  UNL1       -0.2864
      3 C          62.3473   89.9660   11.8045 C.ar    1  UNL1        0.0611
      4 C          61.6230   90.8513   10.8342 C.ar    1  UNL1        0.1037
      5 N          61.0083   89.9786    9.7804 N.ar    1  UNL1       -0.2269
      6 C          61.3528   88.5540   10.0993 C.ar    1  UNL1        0.1407
      7 N          61.0198   87.2629    9.4123 N.ar    1  UNL1       -0.3374
      8 C          61.5143   85.9639    9.9762 C.ar    1  UNL1        0.0735
      9 C          62.3419   85.9561   11.2272 C.ar    1  UNL1        0.0186
     10 C          62.6749   87.2472   11.9143 C.ar    1  UNL1        0.0047
     11 C          62.1803   88.5461   11.3504 C.ar    1  UNL1        0.0386
     12 H          60.4766   87.2680    8.5912 H       1  UNL1        0.1674
     13 C          62.8365   84.6571   11.7912 C.ar    1  UNL1        0.0208
     14 C          63.5011   83.6548   10.8947 C.ar    1  UNL1        0.0055
     15 C          63.9957   82.3558   11.4586 C.ar    1  UNL1        0.0497
     16 C          63.8256   82.0591   12.9191 C.ar    1  UNL1        0.2223
     17 F          64.3202   80.7601   13.4831 F       1  UNL1       -0.1832
     18 N          63.1610   83.0614   13.8156 N.ar    1  UNL1       -0.2165
     19 C          62.6664   84.3603   13.2517 C.ar    1  UNL1        0.1013
     20 C          66.0016   92.5960   11.3942 C.ar    1  UNL1        0.0920
     21 C          66.9697   92.6765   12.5371 C.ar    1  UNL1        0.0204
     22 C          66.6498   92.0050   13.8397 C.ar    1  UNL1        0.0312
     23 C          65.3618   91.2531   13.9995 C.ar    1  UNL1        0.1454
     24 F          65.0420   90.5816   15.3021 F       1  UNL1       -0.2040
     25 C          64.3937   91.1726   12.8566 C.ar    1  UNL1        0.0951
     26 C          64.7136   91.8441   11.5540 C.ar    1  UNL1        0.1598
     27 F          63.7454   91.7635   10.4111 F       1  UNL1       -0.2026
     28 N          66.3215   93.2675   10.0916 N.pl3   1  UNL1       -0.2166
     29 H          66.2679   92.7597    9.2499 H       1  UNL1        0.1734
     30 S          66.7229   94.7126   10.0715 S.O2    1  UNL1        0.0540
     31 O          68.0951   94.3250    9.6061 O.2     1  UNL1       -0.1545
     32 O          65.3507   95.1003   10.5369 O.2     1  UNL1       -0.1545
     33 C          67.1242   96.1578   10.0515 C.3     1  UNL1        0.1724
     34 C          66.3540   96.7053    7.6313 C.3     1  UNL1        0.0019
     35 C          67.3499   96.8554    8.7428 C.3     1  UNL1        0.0273
@<TRIPOS>BOND
     1    34    35    1
     2    35    33    1
     3    33    30    1
     4    30    31    2
     5    30    32    2
     6    30    28    1
     7    28    20    1
     8    20    21   ar
     9    21    22   ar
    10    22    23   ar
    11    23    24    1
    12    23    25   ar
    13    25     1    1
    14     1     2    2
    15     1     3    1
    16     3     4   ar
    17     4     5   ar
    18     5     6   ar
    19     6     7   ar
    20     7     8   ar
    21     8     9   ar
    22     9    13    1
    23    13    14   ar
    24    14    15   ar
    25    15    16   ar
    26    16    17    1
    27    16    18   ar
    28    18    19   ar
    29     9    10   ar
    30    10    11   ar
    31    25    26   ar
    32    26    27    1
    33    26    20   ar
    34    11     3   ar
    35    11     6    1
    36    19    13   ar
    37    28    29    1
    38     7    12    1
@<TRIPOS>MOLECULE
*****
 35 38 0 0 0
SMALL
GASTEIGER

@<TRIPOS>ATOM
      1 C          62.5135   89.8070   11.7919 C.2     1  UNL1        0.2015
      2 O          61.9383   90.8009   10.8270 O.2     1  UNL1       -0.2864
      3 C          63.3114   90.2809   12.9704 C.ar    1  UNL1        0.0611
      4 C          63.2176   89.7494   14.3699 C.ar    1  UNL1        0.1037
      5 N          64.1914   90.5095   15.2207 N.ar    1  UNL1       -0.2269
      6 C          64.8871   91.5109   14.3470 C.ar    1  UNL1        0.1407
      7 N          65.9456   92.5330   14.6381 N.ar    1  UNL1       -0.3374
      8 C          66.4601   93.4139   13.5385 C.ar    1  UNL1        0.0735
      9 C          65.9162   93.2726   12.1477 C.ar    1  UNL1        0.0186
     10 C          64.8578   92.2504   11.8566 C.ar    1  UNL1        0.0047
     11 C          64.3432   91.3696   12.9562 C.ar    1  UNL1        0.0386
     12 H          66.3025   92.6258   15.5509 H       1  UNL1        0.1674
     13 C          66.4309   94.1536   11.0480 C.ar    1  UNL1        0.0208
     14 C          67.1217   93.5474    9.8627 C.ar    1  UNL1        0.0055
     15 C          67.6364   94.4283    8.7630 C.ar    1  UNL1        0.0497
     16 C          67.4601   95.9154    8.8488 C.ar    1  UNL1        0.2223
     17 F          67.9746   96.7964    7.7492 F       1  UNL1       -0.1832
     18 N          66.7691   96.5216   10.0343 N.ar    1  UNL1       -0.2165
     19 C          66.2546   95.6407   11.1338 C.ar    1  UNL1        0.1013
     20 C          62.8814   85.8700   12.1306 C.ar    1  UNL1        0.0920
     21 C          61.8455   85.4032   11.1513 C.ar    1  UNL1        0.0204
     22 C          61.0323   86.4043   10.3856 C.ar    1  UNL1        0.0312
     23 C          61.2549   87.8722   10.5991 C.ar    1  UNL1        0.1454
     24 F          60.4417   88.8734    9.8333 F       1  UNL1       -0.2040
     25 C          62.2908   88.3390   11.5784 C.ar    1  UNL1        0.0951
     26 C          63.1040   87.3379   12.3441 C.ar    1  UNL1        0.1598
     27 F          64.1399   87.8047   13.3234 F       1  UNL1       -0.2026
     28 N          63.6946   84.8688   12.8964 N.pl3   1  UNL1       -0.2166
     29 H          64.6779   84.9086   12.8684 H       1  UNL1        0.1734
     30 S          63.0097   83.8070   13.7046 S.O2    1  UNL1        0.0540
     31 O          63.5353   82.7572   12.7710 O.2     1  UNL1       -0.1545
     32 O          62.4841   84.8567   14.6383 O.2     1  UNL1       -0.1545
     33 C          62.3247   82.7452   14.5130 C.3     1  UNL1        0.1724
     34 C          60.6839   80.7720   14.1077 C.3     1  UNL1        0.0019
     35 C          62.0248   81.4106   13.8975 C.3     1  UNL1        0.0273
@<TRIPOS>BOND
     1    34    35    1
     2    35    33    1
     3    33    30    1
     4    30    31    2
     5    30    32    2
     6    30    28    1
     7    28    20    1
     8    20    21   ar
     9    21    22   ar
    10    22    23   ar
    11    23    24    1
    12    23    25   ar
    13    25     1    1
    14     1     2    2
    15     1     3    1
    16     3     4   ar
    17     4     5   ar
    18     5     6   ar
    19     6     7   ar
    20     7     8   ar
    21     8     9   ar
    22     9    13    1
    23    13    14   ar
    24    14    15   ar
    25    15    16   ar
    26    16    17    1
    27    16    18   ar
    28    18    19   ar
    29     9    10   ar
    30    10    11   ar
    31    25    26   ar
    32    26    27    1
    33    26    20   ar
    34    11     3   ar
    35    11     6    1
    36    19    13   ar
    37    28    29    1
    38     7    12    1
@<TRIPOS>MOLECULE
*****
 35 38 0 0 0
SMALL
GASTEIGER

@<TRIPOS>ATOM
      1 C          60.6560   90.1834   10.7354 C.2     1  UNL1        0.2015
      2 O          59.3904   90.8452   11.1938 O.2     1  UNL1       -0.2864
      3 C          60.6012   89.0854    9.7150 C.ar    1  UNL1        0.0611
      4 C          60.0384   89.1970    8.3290 C.ar    1  UNL1        0.1037
      5 N          60.1890   87.8635    7.6589 N.ar    1  UNL1       -0.2269
      6 C          60.8448   86.9277    8.6306 C.ar    1  UNL1        0.1407
      7 N          61.2428   85.4856    8.5225 N.ar    1  UNL1       -0.3374
      8 C          61.8957   84.7986    9.6851 C.ar    1  UNL1        0.0735
      9 C          62.1505   85.5538   10.9559 C.ar    1  UNL1        0.0186
     10 C          61.7524   86.9959   11.0640 C.ar    1  UNL1        0.0047
     11 C          61.0996   87.6829    9.9014 C.ar    1  UNL1        0.0386
     12 H          61.0756   84.9900    7.6884 H       1  UNL1        0.1674
     13 C          62.8034   84.8667   12.1186 C.ar    1  UNL1        0.0208
     14 C          63.5227   85.6732   13.1588 C.ar    1  UNL1        0.0055
     15 C          64.1756   84.9861   14.3215 C.ar    1  UNL1        0.0497
     16 C          64.1091   83.4926   14.4439 C.ar    1  UNL1        0.2223
     17 F          64.7619   82.8055   15.6065 F       1  UNL1       -0.1832
     18 N          63.3897   82.6861   13.4036 N.ar    1  UNL1       -0.2165
     19 C          62.7368   83.3732   12.2410 C.ar    1  UNL1        0.1013
     20 C          63.5821   90.8870   13.3226 C.ar    1  UNL1        0.0920
     21 C          64.6176   91.4922   12.4217 C.ar    1  UNL1        0.0204
     22 C          64.3325   91.6611   10.9588 C.ar    1  UNL1        0.0312
     23 C          63.0121   91.2249   10.3966 C.ar    1  UNL1        0.1454
     24 F          62.7270   91.3938    8.9337 F       1  UNL1       -0.2040
     25 C          61.9766   90.6197   11.2975 C.ar    1  UNL1        0.0951
     26 C          62.2617   90.4508   12.7605 C.ar    1  UNL1        0.1598
     27 F          61.2261   89.8456   13.6613 F       1  UNL1       -0.2026
     28 N          63.8672   90.7181   14.7855 N.pl3   1  UNL1       -0.2166
     29 H          64.1274   91.4964   15.3294 H       1  UNL1        0.1734
     30 S          63.7557   89.3634   15.4198 S.O2    1  UNL1        0.0540
     31 O          62.8230   89.9236   16.4524 O.2     1  UNL1       -0.1545
     32 O          64.6884   88.8032   14.3872 O.2     1  UNL1       -0.1545
     33 C          63.6444   88.0087   16.0540 C.3     1  UNL1        0.1724
     34 C          62.5623   86.4681   17.8446 C.3     1  UNL1        0.0019
     35 C          62.8896   87.8421   17.3395 C.3     1  UNL1        0.0273
@<TRIPOS>BOND
     1    34    35    1
     2    35    33    1
     3    33    30    1
     4    30    31    2
     5    30    32    2
     6    30    28    1
     7    28    20    1
     8    20    21   ar
     9    21    22   ar
    10    22    23   ar
    11    23    24    1
    12    23    25   ar
    13    25     1    1
    14     1     2    2
    15     1     3    1
    16     3     4   ar
    17     4     5   ar
    18     5     6   ar
    19     6     7   ar
    20     7     8   ar
    21     8     9   ar
    22     9    13    1
    23    13    14   ar
    24    14    15   ar
    25    15    16   ar
    26    16    17    1
    27    16    18   ar
    28    18    19   ar
    29     9    10   ar
    30    10    11   ar
    31    25    26   ar
    32    26    27    1
    33    26    20   ar
    34    11     3   ar
    35    11     6    1
    36    19    13   ar
    37    28    29    1
    38     7    12    1
@<TRIPOS>MOLECULE
*****
 35 38 0 0 0
SMALL
GASTEIGER

@<TRIPOS>ATOM
      1 C          61.0155   90.2785   11.0711 C.2     1  UNL1        0.2015
      2 O          59.7964   90.9010   11.6844 O.2     1  UNL1       -0.2864
      3 C          60.8689   89.1849   10.0550 C.ar    1  UNL1        0.0611
      4 C          60.2641   89.3255    8.6895 C.ar    1  UNL1        0.1037
      5 N          60.3227   87.9862    8.0166 N.ar    1  UNL1       -0.2269
      6 C          60.9636   87.0179    8.9661 C.ar    1  UNL1        0.1407
      7 N          61.2835   85.5573    8.8464 N.ar    1  UNL1       -0.3374
      8 C          61.9409   84.8376    9.9865 C.ar    1  UNL1        0.0735
      9 C          62.2784   85.5785   11.2463 C.ar    1  UNL1        0.0186
     10 C          61.9586   87.0391   11.3660 C.ar    1  UNL1        0.0047
     11 C          61.3012   87.7588   10.2260 C.ar    1  UNL1        0.0386
     12 H          61.0620   85.0711    8.0195 H       1  UNL1        0.1674
     13 C          62.9359   84.8587   12.3864 C.ar    1  UNL1        0.0208
     14 C          63.6478   85.6362   13.4535 C.ar    1  UNL1        0.0055
     15 C          64.3052   84.9164   14.5936 C.ar    1  UNL1        0.0497
     16 C          64.2507   83.4192   14.6665 C.ar    1  UNL1        0.2223
     17 F          64.9081   82.6994   15.8066 F       1  UNL1       -0.1832
     18 N          63.5388   82.6417   13.5994 N.ar    1  UNL1       -0.2165
     19 C          62.8814   83.3615   12.4593 C.ar    1  UNL1        0.1013
     20 C          64.2425   90.9798   13.2723 C.ar    1  UNL1        0.0920
     21 C          65.1133   91.6918   12.2800 C.ar    1  UNL1        0.0204
     22 C          64.6181   91.9328   10.8847 C.ar    1  UNL1        0.0312
     23 C          63.2523   91.4617   10.4817 C.ar    1  UNL1        0.1454
     24 F          62.7571   91.7026    9.0864 F       1  UNL1       -0.2040
     25 C          62.3815   90.7496   11.4741 C.ar    1  UNL1        0.0951
     26 C          62.8766   90.5087   12.8693 C.ar    1  UNL1        0.1598
     27 F          62.0058   89.7967   13.8617 F       1  UNL1       -0.2026
     28 N          64.7376   90.7389   14.6676 N.pl3   1  UNL1       -0.2166
     29 H          64.4785   89.9191   15.1472 H       1  UNL1        0.1734
     30 S          65.6276   91.7470   15.3321 S.O2    1  UNL1        0.0540
     31 O          66.8117   91.1801   14.6064 O.2     1  UNL1       -0.1545
     32 O          64.4436   92.3139   16.0578 O.2     1  UNL1       -0.1545
     33 C          66.5175   92.7551   15.9966 C.3     1  UNL1        0.1724
     34 C          68.9711   93.6006   15.8715 C.3     1  UNL1        0.0019
     35 C          67.9896   92.4929   16.1160 C.3     1  UNL1        0.0273
@<TRIPOS>BOND
     1    34    35    1
     2    35    33    1
     3    33    30    1
     4    30    31    2
     5    30    32    2
     6    30    28    1
     7    28    20    1
     8    20    21   ar
     9    21    22   ar
    10    22    23   ar
    11    23    24    1
    12    23    25   ar
    13    25     1    1
    14     1     2    2
    15     1     3    1
    16     3     4   ar
    17     4     5   ar
    18     5     6   ar
    19     6     7   ar
    20     7     8   ar
    21     8     9   ar
    22     9    13    1
    23    13    14   ar
    24    14    15   ar
    25    15    16   ar
    26    16    17    1
    27    16    18   ar
    28    18    19   ar
    29     9    10   ar
    30    10    11   ar
    31    25    26   ar
    32    26    27    1
    33    26    20   ar
    34    11     3   ar
    35    11     6    1
    36    19    13   ar
    37    28    29    1
    38     7    12    1
@<TRIPOS>MOLECULE
*****
 35 38 0 0 0
SMALL
GASTEIGER

@<TRIPOS>ATOM
      1 C          61.8086   86.0224   11.5952 C.2     1  UNL1        0.2015
      2 O          61.2330   86.0331   12.9802 O.2     1  UNL1       -0.2864
      3 C          61.5363   87.1638   10.6609 C.ar    1  UNL1        0.0611
      4 C          60.6491   87.1214    9.4522 C.ar    1  UNL1        0.1037
      5 N          60.6679   88.4794    8.8155 N.ar    1  UNL1       -0.2269
      6 C          61.5668   89.3612    9.6308 C.ar    1  UNL1        0.1407
      7 N          61.9658   90.7994    9.4819 N.ar    1  UNL1       -0.3374
      8 C          62.9016   91.4245   10.4736 C.ar    1  UNL1        0.0735
      9 C          63.4384   90.6114   11.6141 C.ar    1  UNL1        0.0186
     10 C          63.0393   89.1732   11.7630 C.ar    1  UNL1        0.0047
     11 C          62.1035   88.5481   10.7713 C.ar    1  UNL1        0.0386
     12 H          61.6136   91.3331    8.7334 H       1  UNL1        0.1674
     13 C          64.3742   91.2366   12.6058 C.ar    1  UNL1        0.0208
     14 C          64.5004   90.6598   13.9847 C.ar    1  UNL1        0.0055
     15 C          65.4363   91.2850   14.9764 C.ar    1  UNL1        0.0497
     16 C          66.2459   92.4869   14.5892 C.ar    1  UNL1        0.2223
     17 F          67.1817   93.1121   15.5808 F       1  UNL1       -0.1832
     18 N          66.1196   93.0637   13.2102 N.ar    1  UNL1       -0.2165
     19 C          65.1838   92.4385   12.2186 C.ar    1  UNL1        0.1013
     20 C          63.7937   82.5860   11.6348 C.ar    1  UNL1        0.0920
     21 C          64.3528   82.5656   10.2430 C.ar    1  UNL1        0.0204
     22 C          64.0638   83.6974    9.3020 C.ar    1  UNL1        0.0312
     23 C          63.2158   84.8496    9.7527 C.ar    1  UNL1        0.1454
     24 F          62.9268   85.9814    8.8117 F       1  UNL1       -0.2040
     25 C          62.6567   84.8701   11.1444 C.ar    1  UNL1        0.0951
     26 C          62.9457   83.7383   12.0855 C.ar    1  UNL1        0.1598
     27 F          62.3866   83.7588   13.4773 F       1  UNL1       -0.2026
     28 N          64.0827   81.4542   12.5758 N.pl3   1  UNL1       -0.2166
     29 H          65.0133   81.1851   12.7510 H       1  UNL1        0.1734
     30 S          62.9537   80.7325   13.2499 S.O2    1  UNL1        0.0540
     31 O          63.3563   81.3311   14.5651 O.2     1  UNL1       -0.1545
     32 O          62.5511   80.1339   11.9348 O.2     1  UNL1       -0.1545
     33 C          61.8247   80.0107   13.9239 C.3     1  UNL1        0.1724
     34 C          59.2523   79.9454   14.2832 C.3     1  UNL1        0.0019
     35 C          60.5316   80.7230   14.1898 C.3     1  UNL1        0.0273
@<TRIPOS>BOND
     1    34    35    1
     2    35    33    1
     3    33    30    1
     4    30    31    2
     5    30    32    2
     6    30    28    1
     7    28    20    1
     8    20    21   ar
     9    21    22   ar
    10    22    23   ar
    11    23    24    1
    12    23    25   ar
    13    25     1    1
    14     1     2    2
    15     1     3    1
    16     3     4   ar
    17     4     5   ar
    18     5     6   ar
    19     6     7   ar
    20     7     8   ar
    21     8     9   ar
    22     9    13    1
    23    13    14   ar
    24    14    15   ar
    25    15    16   ar
    26    16    17    1
    27    16    18   ar
    28    18    19   ar
    29     9    10   ar
    30    10    11   ar
    31    25    26   ar
    32    26    27    1
    33    26    20   ar
    34    11     3   ar
    35    11     6    1
    36    19    13   ar
    37    28    29    1
    38     7    12    1
@<TRIPOS>MOLECULE
*****
 35 38 0 0 0
SMALL
GASTEIGER

@<TRIPOS>ATOM
      1 C          63.1808   89.4770   14.6354 C.2     1  UNL1        0.2015
      2 O          62.2039   89.8335   13.5545 O.2     1  UNL1       -0.2864
      3 C          63.9156   90.5594   15.3692 C.ar    1  UNL1        0.0611
      4 C          63.7994   90.8681   16.8324 C.ar    1  UNL1        0.1037
      5 N          64.7076   92.0227   17.1360 N.ar    1  UNL1       -0.2269
      6 C          65.3851   92.4275   15.8604 C.ar    1  UNL1        0.1407
      7 N          66.3845   93.5027   15.5522 N.ar    1  UNL1       -0.3374
      8 C          66.8944   93.6735   14.1519 C.ar    1  UNL1        0.0735
      9 C          66.4049   92.7692   13.0599 C.ar    1  UNL1        0.0186
     10 C          65.4055   91.6939   13.3682 C.ar    1  UNL1        0.0047
     11 C          64.8956   91.5231   14.7684 C.ar    1  UNL1        0.0386
     12 H          66.7058   94.0963   16.2689 H       1  UNL1        0.1674
     13 C          66.9148   92.9401   11.6596 C.ar    1  UNL1        0.0208
     14 C          67.8644   91.9343   11.0792 C.ar    1  UNL1        0.0055
     15 C          68.3743   92.1052    9.6789 C.ar    1  UNL1        0.0497
     16 C          67.9347   93.2819    8.8590 C.ar    1  UNL1        0.2223
     17 F          68.4445   93.4528    7.4588 F       1  UNL1       -0.1832
     18 N          66.9851   94.2876    9.4395 N.ar    1  UNL1       -0.2165
     19 C          66.4752   94.1167   10.8397 C.ar    1  UNL1        0.1013
     20 C          63.9811   85.6092   14.2478 C.ar    1  UNL1        0.0920
     21 C          63.9070   85.1598   15.6770 C.ar    1  UNL1        0.0204
     22 C          63.5909   86.1495   16.7590 C.ar    1  UNL1        0.0312
     23 C          63.3488   87.5885   16.4118 C.ar    1  UNL1        0.1454
     24 F          63.0327   88.5781   17.4938 F       1  UNL1       -0.2040
     25 C          63.4229   88.0378   14.9826 C.ar    1  UNL1        0.0951
     26 C          63.7390   87.0482   13.9007 C.ar    1  UNL1        0.1598
     27 F          63.8130   87.4977   12.4715 F       1  UNL1       -0.2026
     28 N          64.2972   84.6195   13.1659 N.pl3   1  UNL1       -0.2166
     29 H          65.1031   84.7358   12.6125 H       1  UNL1        0.1734
     30 S          63.3853   83.4527   12.9270 S.O2    1  UNL1        0.0540
     31 O          62.4814   84.3266   12.1090 O.2     1  UNL1       -0.1545
     32 O          64.2893   82.5788   13.7451 O.2     1  UNL1       -0.1545
     33 C          62.4736   82.2858   12.6882 C.3     1  UNL1        0.1724
     34 C          60.8221   80.8314   14.0694 C.3     1  UNL1        0.0019
     35 C          62.2201   81.2951   13.7857 C.3     1  UNL1        0.0273
@<TRIPOS>BOND
     1    34    35    1
     2    35    33    1
     3    33    30    1
     4    30    31    2
     5    30    32    2
     6    30    28    1
     7    28    20    1
     8    20    21   ar
     9    21    22   ar
    10    22    23   ar
    11    23    24    1
    12    23    25   ar
    13    25     1    1
    14     1     2    2
    15     1     3    1
    16     3     4   ar
    17     4     5   ar
    18     5     6   ar
    19     6     7   ar
    20     7     8   ar
    21     8     9   ar
    22     9    13    1
    23    13    14   ar
    24    14    15   ar
    25    15    16   ar
    26    16    17    1
    27    16    18   ar
    28    18    19   ar
    29     9    10   ar
    30    10    11   ar
    31    25    26   ar
    32    26    27    1
    33    26    20   ar
    34    11     3   ar
    35    11     6    1
    36    19    13   ar
    37    28    29    1
    38     7    12    1
@<TRIPOS>MOLECULE
*****
 35 38 0 0 0
SMALL
GASTEIGER

@<TRIPOS>ATOM
      1 C          63.8240   83.5484   12.3372 C.2     1  UNL1        0.2015
      2 O          64.7280   82.3814   12.0714 O.2     1  UNL1       -0.2864
      3 C          63.5069   83.9453   13.7486 C.ar    1  UNL1        0.0611
      4 C          63.0903   83.0191   14.8525 C.ar    1  UNL1        0.1037
      5 N          62.8767   83.8395   16.0899 N.ar    1  UNL1       -0.2269
      6 C          63.1613   85.2727   15.7508 C.ar    1  UNL1        0.1407
      7 N          63.1161   86.5267   16.5727 N.ar    1  UNL1       -0.3374
      8 C          63.4604   87.8459   15.9475 C.ar    1  UNL1        0.0735
      9 C          63.8499   87.9113   14.5005 C.ar    1  UNL1        0.0186
     10 C          63.8951   86.6574   13.6786 C.ar    1  UNL1        0.0047
     11 C          63.5508   85.3381   14.3037 C.ar    1  UNL1        0.0386
     12 H          62.8605   86.4838   17.5225 H       1  UNL1        0.1674
     13 C          64.1942   89.2307   13.8753 C.ar    1  UNL1        0.0208
     14 C          63.5254   89.6543   12.6013 C.ar    1  UNL1        0.0055
     15 C          63.8697   90.9736   11.9761 C.ar    1  UNL1        0.0497
     16 C          64.8829   91.8694   12.6250 C.ar    1  UNL1        0.2223
     17 F          65.2272   93.1887   12.0000 F       1  UNL1       -0.1832
     18 N          65.5518   91.4457   13.8991 N.ar    1  UNL1       -0.2165
     19 C          65.2074   90.1264   14.5242 C.ar    1  UNL1        0.1013
     20 C          61.4878   86.0084   10.2778 C.ar    1  UNL1        0.0920
     21 C          62.0629   85.8588    8.9005 C.ar    1  UNL1        0.0204
     22 C          63.2250   84.9391    8.6688 C.ar    1  UNL1        0.0312
     23 C          63.8120   84.1689    9.8143 C.ar    1  UNL1        0.1454
     24 F          64.9741   83.2492    9.5826 F       1  UNL1       -0.2040
     25 C          63.2370   84.3185   11.1916 C.ar    1  UNL1        0.0951
     26 C          62.0749   85.2383   11.4233 C.ar    1  UNL1        0.1598
     27 F          61.4999   85.3878   12.8007 F       1  UNL1       -0.2026
     28 N          60.3258   86.9281   10.5096 N.pl3   1  UNL1       -0.2166
     29 H          59.7569   86.8118   11.3046 H       1  UNL1        0.1734
     30 S          60.0305   88.0250    9.5300 S.O2    1  UNL1        0.0540
     31 O          60.9814   88.9296   10.2563 O.2     1  UNL1       -0.1545
     32 O          59.0797   87.1205    8.8037 O.2     1  UNL1       -0.1545
     33 C          59.7352   89.1219    8.5504 C.3     1  UNL1        0.1724
     34 C          59.2402   89.8642    6.1103 C.3     1  UNL1        0.0019
     35 C          59.3243   88.7842    7.1478 C.3     1  UNL1        0.0273
@<TRIPOS>BOND
     1    34    35    1
     2    35    33    1
     3    33    30    1
     4    30    31    2
     5    30    32    2
     6    30    28    1
     7    28    20    1
     8    20    21   ar
     9    21    22   ar
    10    22    23   ar
    11    23    24    1
    12    23    25   ar
    13    25     1    1
    14     1     2    2
    15     1     3    1
    16     3     4   ar
    17     4     5   ar
    18     5     6   ar
    19     6     7   ar
    20     7     8   ar
    21     8     9   ar
    22     9    13    1
    23    13    14   ar
    24    14    15   ar
    25    15    16   ar
    26    16    17    1
    27    16    18   ar
    28    18    19   ar
    29     9    10   ar
    30    10    11   ar
    31    25    26   ar
    32    26    27    1
    33    26    20   ar
    34    11     3   ar
    35    11     6    1
    36    19    13   ar
    37    28    29    1
    38     7    12    1
@<TRIPOS>MOLECULE
*****
 35 38 0 0 0
SMALL
GASTEIGER

@<TRIPOS>ATOM
      1 C          60.5438   90.3373   10.7219 C.2     1  UNL1        0.2015
      2 O          59.3729   91.2629   10.8702 O.2     1  UNL1       -0.2864
      3 C          60.5139   89.2494    9.6897 C.ar    1  UNL1        0.0611
      4 C          59.9589   89.3666    8.3011 C.ar    1  UNL1        0.1037
      5 N          60.1358   88.0429    7.6180 N.ar    1  UNL1       -0.2269
      6 C          60.8000   87.1076    8.5845 C.ar    1  UNL1        0.1407
      7 N          61.2223   85.6734    8.4641 N.ar    1  UNL1       -0.3374
      8 C          61.8782   84.9848    9.6240 C.ar    1  UNL1        0.0735
      9 C          62.1119   85.7305   10.9044 C.ar    1  UNL1        0.0186
     10 C          61.6897   87.1647   11.0248 C.ar    1  UNL1        0.0047
     11 C          61.0337   87.8533    9.8649 C.ar    1  UNL1        0.0386
     12 H          61.0689   85.1839    7.6237 H       1  UNL1        0.1674
     13 C          62.7679   85.0418   12.0644 C.ar    1  UNL1        0.0208
     14 C          63.4189   85.8511   13.1465 C.ar    1  UNL1        0.0055
     15 C          64.0749   85.1624   14.3065 C.ar    1  UNL1        0.0497
     16 C          64.0798   83.6644   14.3843 C.ar    1  UNL1        0.2223
     17 F          64.7358   82.9758   15.5442 F       1  UNL1       -0.1832
     18 N          63.4288   82.8551   13.3020 N.ar    1  UNL1       -0.2165
     19 C          62.7728   83.5438   12.1421 C.ar    1  UNL1        0.1013
     20 C          64.1802   91.3312   11.9627 C.ar    1  UNL1        0.0920
     21 C          64.1466   90.8242   13.3740 C.ar    1  UNL1        0.0204
     22 C          62.9121   90.1548   13.9012 C.ar    1  UNL1        0.0312
     23 C          61.7112   89.9925   13.0173 C.ar    1  UNL1        0.1454
     24 F          60.4767   89.3232   13.5446 F       1  UNL1       -0.2040
     25 C          61.7448   90.4996   11.6060 C.ar    1  UNL1        0.0951
     26 C          62.9792   91.1689   11.0787 C.ar    1  UNL1        0.1598
     27 F          63.0128   91.6759    9.6674 F       1  UNL1       -0.2026
     28 N          65.4147   92.0005   11.4354 N.pl3   1  UNL1       -0.2166
     29 H          65.6648   91.8967   10.4889 H       1  UNL1        0.1734
     30 S          66.2680   92.8281   12.3502 S.O2    1  UNL1        0.0540
     31 O          66.9574   91.5857   12.8310 O.2     1  UNL1       -0.1545
     32 O          65.5786   94.0705   11.8694 O.2     1  UNL1       -0.1545
     33 C          67.1213   93.6557   13.2650 C.3     1  UNL1        0.1724
     34 C          68.1372   93.5065   15.6516 C.3     1  UNL1        0.0019
     35 C          66.9390   93.5606   14.7509 C.3     1  UNL1        0.0273
@<TRIPOS>BOND
     1    34    35    1
     2    35    33    1
     3    33    30    1
     4    30    31    2
     5    30    32    2
     6    30    28    1
     7    28    20    1
     8    20    21   ar
     9    21    22   ar
    10    22    23   ar
    11    23    24    1
    12    23    25   ar
    13    25     1    1
    14     1     2    2
    15     1     3    1
    16     3     4   ar
    17     4     5   ar
    18     5     6   ar
    19     6     7   ar
    20     7     8   ar
    21     8     9   ar
    22     9    13    1
    23    13    14   ar
    24    14    15   ar
    25    15    16   ar
    26    16    17    1
    27    16    18   ar
    28    18    19   ar
    29     9    10   ar
    30    10    11   ar
    31    25    26   ar
    32    26    27    1
    33    26    20   ar
    34    11     3   ar
    35    11     6    1
    36    19    13   ar
    37    28    29    1
    38     7    12    1
