@<TRIPOS>MOLECULE
*****
 22 24 0 0 0
SMALL
GASTEIGER

@<TRIPOS>ATOM
      1 O          61.8956   85.0150   11.0265 O.3     1  UNL1       -0.4921
      2 C          61.8901   86.5078   10.8794 C.ar    1  UNL1        0.2207
      3 N          62.7157   87.3553   11.8014 N.ar    1  UNL1       -0.1929
      4 C          62.7103   88.8480   11.6542 C.ar    1  UNL1        0.1649
      5 N          61.8792   89.4933   10.5852 N.ar    1  UNL1       -0.2310
      6 C          61.0536   88.6458    9.6631 C.ar    1  UNL1        0.0628
      7 C          61.0590   87.1530    9.8103 C.ar    1  UNL1        0.0552
      8 C          60.2334   86.3055    8.8883 C.3     1  UNL1        0.0897
      9 S          59.4023   86.9507    7.8192 S.3     1  UNL1       -0.1348
     10 C          59.3969   88.4435    7.6721 C.3     1  UNL1        0.0642
     11 C          60.2225   89.2910    8.5941 C.3     1  UNL1        0.0574
     12 H          62.4147   84.6120   11.6944 H       1  UNL1        0.2937
     13 C          63.5360   89.6956   12.5763 C.ar    1  UNL1        0.0359
     14 C          63.9439   89.1651   13.9187 C.ar    1  UNL1        0.0030
     15 C          64.7696   90.0125   14.8407 C.ar    1  UNL1        0.0039
     16 C          65.1872   91.3904   14.4203 C.ar    1  UNL1        0.0714
     17 C          64.7792   91.9209   13.0778 C.ar    1  UNL1        0.0039
     18 C          63.9536   91.0735   12.1558 C.ar    1  UNL1        0.0030
     19 C          66.0129   92.2380   15.3423 C.3     1  UNL1        0.4186
     20 F          66.8385   93.0854   16.2643 F       1  UNL1       -0.1659
     21 F          64.9318   92.1628   16.3794 F       1  UNL1       -0.1659
     22 F          67.0940   92.3131   14.3052 F       1  UNL1       -0.1659
@<TRIPOS>BOND
     1     1     2    1
     2     2     3   ar
     3     3     4   ar
     4     4    13    1
     5    13    14   ar
     6    14    15   ar
     7    15    16   ar
     8    16    19    1
     9    19    20    1
    10    19    21    1
    11    19    22    1
    12    16    17   ar
    13    17    18   ar
    14     4     5   ar
    15     5     6   ar
    16     6     7   ar
    17     7     8    1
    18     8     9    1
    19     9    10    1
    20    10    11    1
    21     7     2   ar
    22    18    13   ar
    23    11     6    1
    24     1    12    1
@<TRIPOS>MOLECULE
*****
 22 24 0 0 0
SMALL
GASTEIGER

@<TRIPOS>ATOM
      1 O          63.3039   90.1122   16.4011 O.3     1  UNL1       -0.4921
      2 C          63.5522   90.3916   14.9485 C.ar    1  UNL1        0.2207
      3 N          62.7162   89.7172   13.9014 N.ar    1  UNL1       -0.1929
      4 C          62.9645   89.9966   12.4487 C.ar    1  UNL1        0.1649
      5 N          64.0488   90.9504   12.0431 N.ar    1  UNL1       -0.2310
      6 C          64.8848   91.6249   13.0901 C.ar    1  UNL1        0.0628
      7 C          64.6365   91.3455   14.5428 C.ar    1  UNL1        0.0552
      8 C          65.4724   92.0199   15.5899 C.3     1  UNL1        0.0897
      9 S          66.5567   92.9737   15.1842 S.3     1  UNL1       -0.1348
     10 C          66.8050   93.2531   13.7315 C.3     1  UNL1        0.0642
     11 C          65.9690   92.5787   12.6845 C.3     1  UNL1        0.0574
     12 H          62.6266   89.5164   16.6545 H       1  UNL1        0.2937
     13 C          62.1285   89.3221   11.4017 C.ar    1  UNL1        0.0359
     14 C          62.3622   87.8778   11.0711 C.ar    1  UNL1        0.0030
     15 C          61.5262   87.2033   10.0241 C.ar    1  UNL1        0.0039
     16 C          60.4567   87.9732    9.3077 C.ar    1  UNL1        0.0714
     17 C          60.2230   89.4175    9.6383 C.ar    1  UNL1        0.0039
     18 C          61.0590   90.0920   10.6853 C.ar    1  UNL1        0.0030
     19 C          59.6206   87.2987    8.2607 C.3     1  UNL1        0.4186
     20 F          58.7847   86.6242    7.2137 F       1  UNL1       -0.1659
     21 F          60.1327   85.9631    8.7122 F       1  UNL1       -0.1659
     22 F          59.1085   88.6343    7.8091 F       1  UNL1       -0.1659
@<TRIPOS>BOND
     1     1     2    1
     2     2     3   ar
     3     3     4   ar
     4     4    13    1
     5    13    14   ar
     6    14    15   ar
     7    15    16   ar
     8    16    19    1
     9    19    20    1
    10    19    21    1
    11    19    22    1
    12    16    17   ar
    13    17    18   ar
    14     4     5   ar
    15     5     6   ar
    16     6     7   ar
    17     7     8    1
    18     8     9    1
    19     9    10    1
    20    10    11    1
    21     7     2   ar
    22    18    13   ar
    23    11     6    1
    24     1    12    1
@<TRIPOS>MOLECULE
*****
 22 24 0 0 0
SMALL
GASTEIGER

@<TRIPOS>ATOM
      1 O          64.7554   89.2386   14.9067 O.3     1  UNL1       -0.4921
      2 C          64.0264   88.5026   13.8218 C.ar    1  UNL1        0.2207
      3 N          63.7898   87.0266   13.9450 N.ar    1  UNL1       -0.1929
      4 C          63.0608   86.2907   12.8601 C.ar    1  UNL1        0.1649
      5 N          62.5684   87.0308   11.6520 N.ar    1  UNL1       -0.2310
      6 C          62.8050   88.5069   11.5287 C.ar    1  UNL1        0.0628
      7 C          63.5340   89.2429   12.6136 C.ar    1  UNL1        0.0552
      8 C          63.7705   90.7189   12.4903 C.3     1  UNL1        0.0897
      9 S          63.2781   91.4591   11.2821 S.3     1  UNL1       -0.1348
     10 C          62.5491   90.7231   10.1972 C.3     1  UNL1        0.0642
     11 C          62.3126   89.2471   10.3205 C.3     1  UNL1        0.0574
     12 H          65.0630   88.7762   15.6614 H       1  UNL1        0.2937
     13 C          62.8242   84.8145   12.9835 C.ar    1  UNL1        0.0359
     14 C          62.5704   84.2056   14.3306 C.ar    1  UNL1        0.0030
     15 C          62.3338   82.7296   14.4540 C.ar    1  UNL1        0.0039
     16 C          62.3511   81.8624   13.2302 C.ar    1  UNL1        0.0714
     17 C          62.6049   82.4713   11.8830 C.ar    1  UNL1        0.0039
     18 C          62.8414   83.9474   11.7597 C.ar    1  UNL1        0.0030
     19 C          62.1145   80.3863   13.3535 C.3     1  UNL1        0.4186
     20 F          61.8779   78.9102   13.4768 F       1  UNL1       -0.1659
     21 F          63.0296   80.1425   12.1903 F       1  UNL1       -0.1659
     22 F          61.1994   80.6301   14.5167 F       1  UNL1       -0.1659
@<TRIPOS>BOND
     1     1     2    1
     2     2     3   ar
     3     3     4   ar
     4     4    13    1
     5    13    14   ar
     6    14    15   ar
     7    15    16   ar
     8    16    19    1
     9    19    20    1
    10    19    21    1
    11    19    22    1
    12    16    17   ar
    13    17    18   ar
    14     4     5   ar
    15     5     6   ar
    16     6     7   ar
    17     7     8    1
    18     8     9    1
    19     9    10    1
    20    10    11    1
    21     7     2   ar
    22    18    13   ar
    23    11     6    1
    24     1    12    1
@<TRIPOS>MOLECULE
*****
 22 24 0 0 0
SMALL
GASTEIGER

@<TRIPOS>ATOM
      1 O          62.4141   86.7181   18.3234 O.3     1  UNL1       -0.4921
      2 C          62.8166   86.6526   16.8800 C.ar    1  UNL1        0.2207
      3 N          62.7338   85.3525   16.1365 N.ar    1  UNL1       -0.1929
      4 C          63.1364   85.2870   14.6930 C.ar    1  UNL1        0.1649
      5 N          63.6218   86.5216   13.9930 N.ar    1  UNL1       -0.2310
      6 C          63.7047   87.8218   14.7365 C.ar    1  UNL1        0.0628
      7 C          63.3021   87.8873   16.1800 C.ar    1  UNL1        0.0552
      8 C          63.3849   89.1874   16.9234 C.3     1  UNL1        0.0897
      9 S          63.8704   90.4220   16.2234 S.3     1  UNL1       -0.1348
     10 C          64.2729   90.3565   14.7799 C.3     1  UNL1        0.0642
     11 C          64.1901   89.0564   14.0365 C.3     1  UNL1        0.0574
     12 H          62.1108   85.9469   18.7607 H       1  UNL1        0.2937
     13 C          63.0535   83.9868   13.9495 C.ar    1  UNL1        0.0359
     14 C          62.3780   82.8047   14.5790 C.ar    1  UNL1        0.0030
     15 C          62.2951   81.5045   13.8356 C.ar    1  UNL1        0.0039
     16 C          62.8878   81.3865   12.4627 C.ar    1  UNL1        0.0714
     17 C          63.5633   82.5686   11.8333 C.ar    1  UNL1        0.0039
     18 C          63.6462   83.8688   12.5767 C.ar    1  UNL1        0.0030
     19 C          62.8049   80.0863   11.7193 C.3     1  UNL1        0.4186
     20 F          62.7221   78.7861   10.9759 F       1  UNL1       -0.1659
     21 F          62.4828   79.3746   12.9998 F       1  UNL1       -0.1659
     22 F          63.1270   80.7979   10.4387 F       1  UNL1       -0.1659
@<TRIPOS>BOND
     1     1     2    1
     2     2     3   ar
     3     3     4   ar
     4     4    13    1
     5    13    14   ar
     6    14    15   ar
     7    15    16   ar
     8    16    19    1
     9    19    20    1
    10    19    21    1
    11    19    22    1
    12    16    17   ar
    13    17    18   ar
    14     4     5   ar
    15     5     6   ar
    16     6     7   ar
    17     7     8    1
    18     8     9    1
    19     9    10    1
    20    10    11    1
    21     7     2   ar
    22    18    13   ar
    23    11     6    1
    24     1    12    1
@<TRIPOS>MOLECULE
*****
 22 24 0 0 0
SMALL
GASTEIGER

@<TRIPOS>ATOM
      1 O          64.1804   87.2347   14.2934 O.3     1  UNL1       -0.4921
      2 C          63.4537   86.4705   13.2266 C.ar    1  UNL1        0.2207
      3 N          62.7372   87.2059   12.1332 N.ar    1  UNL1       -0.1929
      4 C          62.0106   86.4416   11.0665 C.ar    1  UNL1        0.1649
      5 N          62.0005   84.9419   11.0932 N.ar    1  UNL1       -0.2310
      6 C          62.7171   84.2064   12.1866 C.ar    1  UNL1        0.0628
      7 C          63.4437   84.9707   13.2534 C.ar    1  UNL1        0.0552
      8 C          64.1603   84.2353   14.3468 C.3     1  UNL1        0.0897
      9 S          64.1502   82.7356   14.3735 S.3     1  UNL1       -0.1348
     10 C          63.4236   81.9713   13.3068 C.3     1  UNL1        0.0642
     11 C          62.7070   82.7067   12.2133 C.3     1  UNL1        0.0574
     12 H          64.1866   88.1716   14.2767 H       1  UNL1        0.2937
     13 C          61.2940   87.1772    9.9730 C.ar    1  UNL1        0.0359
     14 C          61.2879   88.6771    9.9570 C.ar    1  UNL1        0.0030
     15 C          60.5714   89.4126    8.8636 C.ar    1  UNL1        0.0039
     16 C          59.8609   88.6482    7.7862 C.ar    1  UNL1        0.0714
     17 C          59.8669   87.1483    7.8022 C.ar    1  UNL1        0.0039
     18 C          60.5835   86.4128    8.8956 C.ar    1  UNL1        0.0030
     19 C          59.1443   89.3837    6.6927 C.3     1  UNL1        0.4186
     20 F          58.4277   90.1191    5.5994 F       1  UNL1       -0.1659
     21 F          57.8566   88.7285    7.0960 F       1  UNL1       -0.1659
     22 F          60.4320   90.0389    6.2895 F       1  UNL1       -0.1659
@<TRIPOS>BOND
     1     1     2    1
     2     2     3   ar
     3     3     4   ar
     4     4    13    1
     5    13    14   ar
     6    14    15   ar
     7    15    16   ar
     8    16    19    1
     9    19    20    1
    10    19    21    1
    11    19    22    1
    12    16    17   ar
    13    17    18   ar
    14     4     5   ar
    15     5     6   ar
    16     6     7   ar
    17     7     8    1
    18     8     9    1
    19     9    10    1
    20    10    11    1
    21     7     2   ar
    22    18    13   ar
    23    11     6    1
    24     1    12    1
@<TRIPOS>MOLECULE
*****
 22 24 0 0 0
SMALL
GASTEIGER

@<TRIPOS>ATOM
      1 O          64.6490   82.6212   10.1531 O.3     1  UNL1       -0.4921
      2 C          63.7297   83.6545   10.7340 C.ar    1  UNL1        0.2207
      3 N          62.9833   84.5885    9.8282 N.ar    1  UNL1       -0.1929
      4 C          62.0641   85.6217   10.4091 C.ar    1  UNL1        0.1649
      5 N          61.8913   85.7210   11.8958 N.ar    1  UNL1       -0.2310
      6 C          62.6377   84.7869   12.8017 C.ar    1  UNL1        0.0628
      7 C          63.5569   83.7537   12.2208 C.ar    1  UNL1        0.0552
      8 C          64.3033   82.8197   13.1265 C.3     1  UNL1        0.0897
      9 S          64.1305   82.9189   14.6132 S.3     1  UNL1       -0.1348
     10 C          63.2113   83.9521   15.1941 C.3     1  UNL1        0.0642
     11 C          62.4649   84.8862   14.2883 C.3     1  UNL1        0.0574
     12 H          64.7569   82.5593    9.2244 H       1  UNL1        0.2937
     13 C          61.3177   86.5558    9.5033 C.ar    1  UNL1        0.0359
     14 C          60.5152   86.0098    8.3596 C.ar    1  UNL1        0.0030
     15 C          59.7688   86.9438    7.4538 C.ar    1  UNL1        0.0039
     16 C          59.8250   88.4237    7.6916 C.ar    1  UNL1        0.0714
     17 C          60.6274   88.9697    8.8353 C.ar    1  UNL1        0.0039
     18 C          61.3738   88.0357    9.7411 C.ar    1  UNL1        0.0030
     19 C          59.0785   89.3577    6.7858 C.3     1  UNL1        0.4186
     20 F          58.3321   90.2917    5.8800 F       1  UNL1       -0.1659
     21 F          57.7987   88.6427    7.1031 F       1  UNL1       -0.1659
     22 F          60.3584   90.0728    6.4684 F       1  UNL1       -0.1659
@<TRIPOS>BOND
     1     1     2    1
     2     2     3   ar
     3     3     4   ar
     4     4    13    1
     5    13    14   ar
     6    14    15   ar
     7    15    16   ar
     8    16    19    1
     9    19    20    1
    10    19    21    1
    11    19    22    1
    12    16    17   ar
    13    17    18   ar
    14     4     5   ar
    15     5     6   ar
    16     6     7   ar
    17     7     8    1
    18     8     9    1
    19     9    10    1
    20    10    11    1
    21     7     2   ar
    22    18    13   ar
    23    11     6    1
    24     1    12    1
@<TRIPOS>MOLECULE
*****
 22 24 0 0 0
SMALL
GASTEIGER

@<TRIPOS>ATOM
      1 O          62.6362   85.9849   17.6888 O.3     1  UNL1       -0.4921
      2 C          63.0438   86.2519   16.2702 C.ar    1  UNL1        0.2207
      3 N          63.5052   87.6211   15.8674 N.ar    1  UNL1       -0.1929
      4 C          63.9128   87.8880   14.4487 C.ar    1  UNL1        0.1649
      5 N          63.8590   86.7857   13.4328 N.ar    1  UNL1       -0.2310
      6 C          63.3976   85.4164   13.8356 C.ar    1  UNL1        0.0628
      7 C          62.9900   85.1495   15.2543 C.ar    1  UNL1        0.0552
      8 C          62.5287   83.7802   15.6571 C.3     1  UNL1        0.0897
      9 S          62.4749   82.6779   14.6413 S.3     1  UNL1       -0.1348
     10 C          62.8825   82.9449   13.2226 C.3     1  UNL1        0.0642
     11 C          63.3439   84.3141   12.8198 C.3     1  UNL1        0.0574
     12 H          62.6698   86.6735   18.3234 H       1  UNL1        0.2937
     13 C          64.3742   89.2573   14.0459 C.ar    1  UNL1        0.0359
     14 C          65.4258   89.9614   14.8511 C.ar    1  UNL1        0.0030
     15 C          65.8872   91.3306   14.4484 C.ar    1  UNL1        0.0039
     16 C          65.2970   91.9958   13.2404 C.ar    1  UNL1        0.0714
     17 C          64.2454   91.2917   12.4352 C.ar    1  UNL1        0.0039
     18 C          63.7840   89.9225   12.8379 C.ar    1  UNL1        0.0030
     19 C          65.7584   93.3651   12.8376 C.3     1  UNL1        0.4186
     20 F          66.2198   94.7343   12.4349 F       1  UNL1       -0.1659
     21 F          66.1812   93.6382   14.2506 F       1  UNL1       -0.1659
     22 F          65.3356   93.0920   11.4246 F       1  UNL1       -0.1659
@<TRIPOS>BOND
     1     1     2    1
     2     2     3   ar
     3     3     4   ar
     4     4    13    1
     5    13    14   ar
     6    14    15   ar
     7    15    16   ar
     8    16    19    1
     9    19    20    1
    10    19    21    1
    11    19    22    1
    12    16    17   ar
    13    17    18   ar
    14     4     5   ar
    15     5     6   ar
    16     6     7   ar
    17     7     8    1
    18     8     9    1
    19     9    10    1
    20    10    11    1
    21     7     2   ar
    22    18    13   ar
    23    11     6    1
    24     1    12    1
@<TRIPOS>MOLECULE
*****
 22 24 0 0 0
SMALL
GASTEIGER

@<TRIPOS>ATOM
      1 O          65.0561   82.8690   10.8315 O.3     1  UNL1       -0.4921
      2 C          64.2494   83.2772   12.0285 C.ar    1  UNL1        0.2207
      3 N          64.3563   84.6742   12.5640 N.ar    1  UNL1       -0.1929
      4 C          63.5496   85.0824   13.7609 C.ar    1  UNL1        0.1649
      5 N          62.6361   84.0935   14.4224 N.ar    1  UNL1       -0.2310
      6 C          62.5292   82.6964   13.8869 C.ar    1  UNL1        0.0628
      7 C          63.3358   82.2882   12.6900 C.ar    1  UNL1        0.0552
      8 C          63.2290   80.8912   12.1545 C.3     1  UNL1        0.0897
      9 S          62.3155   79.9023   12.8159 S.3     1  UNL1       -0.1348
     10 C          61.5088   80.3105   14.0129 C.3     1  UNL1        0.0642
     11 C          61.6157   81.7075   14.5484 C.3     1  UNL1        0.0574
     12 H          65.6267   83.4867   10.4183 H       1  UNL1        0.2937
     13 C          63.6565   86.4795   14.2964 C.ar    1  UNL1        0.0359
     14 C          63.5527   86.7271   15.7722 C.ar    1  UNL1        0.0030
     15 C          63.6596   88.1241   16.3077 C.ar    1  UNL1        0.0039
     16 C          63.8703   89.2736   15.3674 C.ar    1  UNL1        0.0714
     17 C          63.9740   89.0261   13.8916 C.ar    1  UNL1        0.0039
     18 C          63.8672   87.6290   13.3561 C.ar    1  UNL1        0.0030
     19 C          63.9772   90.6708   15.9029 C.3     1  UNL1        0.4186
     20 F          64.0841   92.0678   16.4383 F       1  UNL1       -0.1659
     21 F          64.6185   91.1129   14.6210 F       1  UNL1       -0.1659
     22 F          63.3359   90.2286   17.1847 F       1  UNL1       -0.1659
@<TRIPOS>BOND
     1     1     2    1
     2     2     3   ar
     3     3     4   ar
     4     4    13    1
     5    13    14   ar
     6    14    15   ar
     7    15    16   ar
     8    16    19    1
     9    19    20    1
    10    19    21    1
    11    19    22    1
    12    16    17   ar
    13    17    18   ar
    14     4     5   ar
    15     5     6   ar
    16     6     7   ar
    17     7     8    1
    18     8     9    1
    19     9    10    1
    20    10    11    1
    21     7     2   ar
    22    18    13   ar
    23    11     6    1
    24     1    12    1
@<TRIPOS>MOLECULE
*****
 22 24 0 0 0
SMALL
GASTEIGER

@<TRIPOS>ATOM
      1 O          64.3832   82.2873   10.1615 O.3     1  UNL1       -0.4921
      2 C          63.8054   82.8776   11.4136 C.ar    1  UNL1        0.2207
      3 N          64.0102   84.3313   11.7213 N.ar    1  UNL1       -0.1929
      4 C          63.4324   84.9215   12.9734 C.ar    1  UNL1        0.1649
      5 N          62.6498   84.0581   13.9178 N.ar    1  UNL1       -0.2310
      6 C          62.4449   82.6043   13.6101 C.ar    1  UNL1        0.0628
      7 C          63.0227   82.0140   12.3580 C.ar    1  UNL1        0.0552
      8 C          62.8178   80.5603   12.0502 C.3     1  UNL1        0.0897
      9 S          62.0352   79.6969   12.9946 S.3     1  UNL1       -0.1348
     10 C          61.4574   80.2871   14.2467 C.3     1  UNL1        0.0642
     11 C          61.6622   81.7408   14.5544 C.3     1  UNL1        0.0574
     12 H          64.8721   82.8267    9.5716 H       1  UNL1        0.2937
     13 C          63.6373   86.3753   13.2812 C.ar    1  UNL1        0.0359
     14 C          63.1797   87.4199   12.3068 C.ar    1  UNL1        0.0030
     15 C          63.3846   88.8736   12.6144 C.ar    1  UNL1        0.0039
     16 C          64.0470   89.2827   13.8965 C.ar    1  UNL1        0.0714
     17 C          64.5046   88.2381   14.8709 C.ar    1  UNL1        0.0039
     18 C          64.2998   86.7844   14.5632 C.ar    1  UNL1        0.0030
     19 C          64.2519   90.7365   14.2042 C.3     1  UNL1        0.4186
     20 F          64.4568   92.1902   14.5119 F       1  UNL1       -0.1659
     21 F          64.0456   90.4567   15.6633 F       1  UNL1       -0.1659
     22 F          64.4582   91.0163   12.7451 F       1  UNL1       -0.1659
@<TRIPOS>BOND
     1     1     2    1
     2     2     3   ar
     3     3     4   ar
     4     4    13    1
     5    13    14   ar
     6    14    15   ar
     7    15    16   ar
     8    16    19    1
     9    19    20    1
    10    19    21    1
    11    19    22    1
    12    16    17   ar
    13    17    18   ar
    14     4     5   ar
    15     5     6   ar
    16     6     7   ar
    17     7     8    1
    18     8     9    1
    19     9    10    1
    20    10    11    1
    21     7     2   ar
    22    18    13   ar
    23    11     6    1
    24     1    12    1
