@<TRIPOS>MOLECULE
*****
 15 16 0 0 0
SMALL
GASTEIGER

@<TRIPOS>ATOM
      1 C          61.0560   87.0297   10.2570 C.2     1  UNL1        0.1898
      2 N          61.3308   86.3731   11.5774 N.2     1  UNL1       -0.2199
      3 C          62.2893   85.2434   11.3427 C.2     1  UNL1        0.1003
      4 C          62.9140   84.2473   12.2741 C.2     1  UNL1        0.0569
      5 C          63.8562   83.2096   11.7401 C.2     1  UNL1        0.1364
      6 C          64.1737   83.1679   10.2747 C.2     1  UNL1        0.0172
      7 C          63.5491   84.1640    9.3433 C.3     1  UNL1        0.0765
      8 C          62.6069   85.2018    9.8773 C.2     1  UNL1        0.0833
      9 N          61.8446   86.3057    9.2063 N.2     1  UNL1       -0.2238
     10 O          64.4809   82.2134   12.6715 O.2     1  UNL1       -0.4717
     11 C          63.6207   81.2166   13.3902 C.3     1  UNL1        0.2525
     12 S          60.1513   88.2040   10.0276 S.3     1  UNL1       -0.0757
     13 C          60.2620   88.9998    8.7610 C.3     1  UNL1        0.0652
     14 C          59.3063   89.5709    6.4135 C.3     1  UNL1        0.0009
     15 C          59.4516   88.6137    7.5593 C.3     1  UNL1        0.0121
@<TRIPOS>BOND
     1    14    15    1
     2    15    13    1
     3    13    12    1
     4    12     1    1
     5     1     2    2
     6     2     3    1
     7     3     4    2
     8     4     5    1
     9     5    10    1
    10    10    11    1
    11     5     6    2
    12     6     7    1
    13     7     8    1
    14     8     9    2
    15     9     1    1
    16     8     3    1
@<TRIPOS>MOLECULE
*****
 15 16 0 0 0
SMALL
GASTEIGER

@<TRIPOS>ATOM
      1 C          63.2546   83.6492   12.7335 C.2     1  UNL1        0.1898
      2 N          62.3224   84.8199   12.8362 N.2     1  UNL1       -0.2199
      3 C          62.1696   85.4124   11.4667 C.2     1  UNL1        0.1003
      4 C          61.3759   86.5805   10.9613 C.2     1  UNL1        0.0569
      5 C          61.4199   86.9441    9.5068 C.2     1  UNL1        0.1364
      6 C          62.2578   86.1396    8.5576 C.2     1  UNL1        0.0172
      7 C          63.0515   84.9715    9.0630 C.3     1  UNL1        0.0765
      8 C          63.0074   84.6079   10.5176 C.2     1  UNL1        0.0833
      9 N          63.6780   83.5182   11.3005 N.2     1  UNL1       -0.2238
     10 O          60.6262   88.1122    9.0013 O.2     1  UNL1       -0.4717
     11 C          59.5292   87.8971    8.0011 C.3     1  UNL1        0.2525
     12 S          63.6875   82.7649   13.8652 S.3     1  UNL1       -0.0757
     13 C          63.6009   81.2738   13.7271 C.3     1  UNL1        0.0652
     14 C          61.0484   80.9505   14.0881 C.3     1  UNL1        0.0009
     15 C          62.3043   80.6311   13.3326 C.3     1  UNL1        0.0121
@<TRIPOS>BOND
     1    14    15    1
     2    15    13    1
     3    13    12    1
     4    12     1    1
     5     1     2    2
     6     2     3    1
     7     3     4    2
     8     4     5    1
     9     5    10    1
    10    10    11    1
    11     5     6    2
    12     6     7    1
    13     7     8    1
    14     8     9    2
    15     9     1    1
    16     8     3    1
@<TRIPOS>MOLECULE
*****
 15 16 0 0 0
SMALL
GASTEIGER

@<TRIPOS>ATOM
      1 C          61.1679   87.0625   10.2566 C.2     1  UNL1        0.1898
      2 N          61.3713   86.3982   11.5860 N.2     1  UNL1       -0.2199
      3 C          62.2958   85.2340   11.3859 C.2     1  UNL1        0.1003
      4 C          62.8501   84.2171   12.3390 C.2     1  UNL1        0.0569
      5 C          63.7725   83.1451   11.8391 C.2     1  UNL1        0.1364
      6 C          64.1405   83.0900   10.3860 C.2     1  UNL1        0.0172
      7 C          63.5862   84.1069    9.4328 C.3     1  UNL1        0.0765
      8 C          62.6639   85.1790    9.9328 C.2     1  UNL1        0.0833
      9 N          61.9668   86.3090    9.2349 N.2     1  UNL1       -0.2238
     10 O          64.3268   82.1281   12.7923 O.2     1  UNL1       -0.4717
     11 C          63.4440   81.0371   13.3219 C.3     1  UNL1        0.2525
     12 S          60.3153   88.2686    9.9950 S.3     1  UNL1       -0.0757
     13 C          60.9306   89.6366    9.9966 C.3     1  UNL1        0.0652
     14 C          63.0259   91.1581   10.2087 C.3     1  UNL1        0.0009
     15 C          62.3910   89.8018   10.2963 C.3     1  UNL1        0.0121
@<TRIPOS>BOND
     1    14    15    1
     2    15    13    1
     3    13    12    1
     4    12     1    1
     5     1     2    2
     6     2     3    1
     7     3     4    2
     8     4     5    1
     9     5    10    1
    10    10    11    1
    11     5     6    2
    12     6     7    1
    13     7     8    1
    14     8     9    2
    15     9     1    1
    16     8     3    1
@<TRIPOS>MOLECULE
*****
 15 16 0 0 0
SMALL
GASTEIGER

@<TRIPOS>ATOM
      1 C          65.7366   93.4955   11.3761 C.2     1  UNL1        0.1898
      2 N          65.9276   92.9944   12.7769 N.2     1  UNL1       -0.2199
      3 C          65.0521   91.7905   12.9620 C.2     1  UNL1        0.1003
      4 C          64.8270   90.8841   14.1357 C.2     1  UNL1        0.0569
      5 C          63.8698   89.7348   14.0230 C.2     1  UNL1        0.1364
      6 C          63.1377   89.4919   12.7365 C.2     1  UNL1        0.0172
      7 C          63.3628   90.3983   11.5628 C.3     1  UNL1        0.0765
      8 C          64.3200   91.5476   11.6755 C.2     1  UNL1        0.0833
      9 N          64.7431   92.6014   10.6954 N.2     1  UNL1       -0.2238
     10 O          63.6446   88.8283   15.1968 O.2     1  UNL1       -0.4717
     11 C          63.1413   89.3908   16.4930 C.3     1  UNL1        0.2525
     12 S          66.4192   94.6824   10.7635 S.3     1  UNL1       -0.0757
     13 C          67.0274   94.5750    9.3965 C.3     1  UNL1        0.0652
     14 C          68.4541   92.4282    9.0707 C.3     1  UNL1        0.0009
     15 C          68.3643   93.9181    9.2200 C.3     1  UNL1        0.0121
@<TRIPOS>BOND
     1    14    15    1
     2    15    13    1
     3    13    12    1
     4    12     1    1
     5     1     2    2
     6     2     3    1
     7     3     4    2
     8     4     5    1
     9     5    10    1
    10    10    11    1
    11     5     6    2
    12     6     7    1
    13     7     8    1
    14     8     9    2
    15     9     1    1
    16     8     3    1
@<TRIPOS>MOLECULE
*****
 15 16 0 0 0
SMALL
GASTEIGER

@<TRIPOS>ATOM
      1 C          66.1644   93.9205   11.0015 C.2     1  UNL1        0.1898
      2 N          65.1094   92.8573   10.9208 N.2     1  UNL1       -0.2199
      3 C          64.9930   92.2162   12.2719 C.2     1  UNL1        0.1003
      4 C          64.1190   91.1112   12.7866 C.2     1  UNL1        0.0569
      5 C          64.2279   90.6733   14.2171 C.2     1  UNL1        0.1364
      6 C          65.2110   91.3403   15.1328 C.2     1  UNL1        0.0172
      7 C          66.0851   92.4453   14.6181 C.3     1  UNL1        0.0765
      8 C          65.9761   92.8832   13.1877 C.2     1  UNL1        0.0833
      9 N          66.7000   93.9365   12.4025 N.2     1  UNL1       -0.2238
     10 O          63.3538   89.5683   14.7319 O.2     1  UNL1       -0.4717
     11 C          63.1681   89.3853   16.2090 C.3     1  UNL1        0.2525
     12 S          66.6061   94.8113    9.8784 S.3     1  UNL1       -0.0757
     13 C          67.6927   94.3616    8.9473 C.3     1  UNL1        0.0652
     14 C          68.4091   91.8678    9.0811 C.3     1  UNL1        0.0009
     15 C          68.6708   93.3128    9.3871 C.3     1  UNL1        0.0121
@<TRIPOS>BOND
     1    14    15    1
     2    15    13    1
     3    13    12    1
     4    12     1    1
     5     1     2    2
     6     2     3    1
     7     3     4    2
     8     4     5    1
     9     5    10    1
    10    10    11    1
    11     5     6    2
    12     6     7    1
    13     7     8    1
    14     8     9    2
    15     9     1    1
    16     8     3    1
@<TRIPOS>MOLECULE
*****
 15 16 0 0 0
SMALL
GASTEIGER

@<TRIPOS>ATOM
      1 C          63.7480   85.3744   15.3094 C.2     1  UNL1        0.1898
      2 N          64.2628   86.3418   14.2851 N.2     1  UNL1       -0.2199
      3 C          64.0612   87.7301   14.8161 C.2     1  UNL1        0.1003
      4 C          64.3772   89.0797   14.2428 C.2     1  UNL1        0.0569
      5 C          64.0538   90.3199   15.0219 C.2     1  UNL1        0.1364
      6 C          63.4144   90.2106   16.3744 C.2     1  UNL1        0.0172
      7 C          63.0983   88.8610   16.9477 C.3     1  UNL1        0.0765
      8 C          63.4217   87.6208   16.1685 C.2     1  UNL1        0.0833
      9 N          63.2282   86.1649   16.4734 N.2     1  UNL1       -0.2238
     10 O          64.3699   91.6696   14.4486 O.2     1  UNL1       -0.4717
     11 C          64.8435   91.7898   13.0305 C.3     1  UNL1        0.2525
     12 S          63.7522   83.8791   15.1905 S.3     1  UNL1       -0.0757
     13 C          62.4603   83.1369   15.0170 C.3     1  UNL1        0.0652
     14 C          61.2702   81.0325   14.0655 C.3     1  UNL1        0.0009
     15 C          62.3387   82.0800   13.9596 C.3     1  UNL1        0.0121
@<TRIPOS>BOND
     1    14    15    1
     2    15    13    1
     3    13    12    1
     4    12     1    1
     5     1     2    2
     6     2     3    1
     7     3     4    2
     8     4     5    1
     9     5    10    1
    10    10    11    1
    11     5     6    2
    12     6     7    1
    13     7     8    1
    14     8     9    2
    15     9     1    1
    16     8     3    1
@<TRIPOS>MOLECULE
*****
 15 16 0 0 0
SMALL
GASTEIGER

@<TRIPOS>ATOM
      1 C          65.4504   92.6012   12.7189 C.2     1  UNL1        0.1898
      2 N          64.6256   91.6032   13.4763 N.2     1  UNL1       -0.2199
      3 C          63.6927   90.9411   12.5060 C.2     1  UNL1        0.1003
      4 C          62.6493   89.8782   12.6829 C.2     1  UNL1        0.0569
      5 C          61.8542   89.4040   11.5028 C.2     1  UNL1        0.1364
      6 C          62.1024   89.9928   10.1457 C.2     1  UNL1        0.0172
      7 C          63.1458   91.0558    9.9688 C.3     1  UNL1        0.0765
      8 C          63.9410   91.5299   11.1489 C.2     1  UNL1        0.0833
      9 N          65.0273   92.5559   11.2805 N.2     1  UNL1       -0.2238
     10 O          60.8107   88.3410   11.6796 O.2     1  UNL1       -0.4717
     11 C          60.9383   87.0362   10.9508 C.3     1  UNL1        0.2525
     12 S          66.5119   93.4887   13.2981 S.3     1  UNL1       -0.0757
     13 C          66.8490   93.4010   14.7571 C.3     1  UNL1        0.0652
     14 C          68.5334   92.2454   16.3626 C.3     1  UNL1        0.0009
     15 C          68.2616   93.1351   15.1859 C.3     1  UNL1        0.0121
@<TRIPOS>BOND
     1    14    15    1
     2    15    13    1
     3    13    12    1
     4    12     1    1
     5     1     2    2
     6     2     3    1
     7     3     4    2
     8     4     5    1
     9     5    10    1
    10    10    11    1
    11     5     6    2
    12     6     7    1
    13     7     8    1
    14     8     9    2
    15     9     1    1
    16     8     3    1
@<TRIPOS>MOLECULE
*****
 15 16 0 0 0
SMALL
GASTEIGER

@<TRIPOS>ATOM
      1 C          62.0412   89.9275   11.3749 C.2     1  UNL1        0.1898
      2 N          62.9383   91.0655   10.9875 N.2     1  UNL1       -0.2199
      3 C          63.9719   91.2277   12.0624 C.2     1  UNL1        0.1003
      4 C          65.1149   92.1862   12.2194 C.2     1  UNL1        0.0569
      5 C          65.9995   92.1070   13.4281 C.2     1  UNL1        0.1364
      6 C          65.7412   91.0691   14.4798 C.2     1  UNL1        0.0172
      7 C          64.5983   90.1105   14.3228 C.3     1  UNL1        0.0765
      8 C          63.7136   90.1898   13.1141 C.2     1  UNL1        0.0833
      9 N          62.5203   89.3863   12.6892 N.2     1  UNL1       -0.2238
     10 O          67.1426   93.0656   13.5851 O.2     1  UNL1       -0.4717
     11 C          67.5905   93.4807   14.9552 C.3     1  UNL1        0.2525
     12 S          60.8705   89.4198   10.5864 S.3     1  UNL1       -0.0757
     13 C          60.2886   88.0714   10.8917 C.3     1  UNL1        0.0652
     14 C          62.0049   86.8235    9.3927 C.3     1  UNL1        0.0009
     15 C          61.0592   86.8288   10.5570 C.3     1  UNL1        0.0121
@<TRIPOS>BOND
     1    14    15    1
     2    15    13    1
     3    13    12    1
     4    12     1    1
     5     1     2    2
     6     2     3    1
     7     3     4    2
     8     4     5    1
     9     5    10    1
    10    10    11    1
    11     5     6    2
    12     6     7    1
    13     7     8    1
    14     8     9    2
    15     9     1    1
    16     8     3    1
@<TRIPOS>MOLECULE
*****
 15 16 0 0 0
SMALL
GASTEIGER

@<TRIPOS>ATOM
      1 C          63.3883   85.7597   13.2396 C.2     1  UNL1        0.1898
      2 N          64.0606   86.6405   14.2507 N.2     1  UNL1       -0.2199
      3 C          63.9526   88.0589   13.7748 C.2     1  UNL1        0.1003
      4 C          64.4317   89.3536   14.3613 C.2     1  UNL1        0.0569
      5 C          64.1717   90.6442   13.6426 C.2     1  UNL1        0.1364
      6 C          63.4325   90.6401   12.3374 C.2     1  UNL1        0.0172
      7 C          62.9534   89.3454   11.7509 C.3     1  UNL1        0.0765
      8 C          63.2134   88.0548   12.4696 C.2     1  UNL1        0.0833
      9 N          62.8647   86.6338   12.1388 N.2     1  UNL1       -0.2238
     10 O          64.6508   91.9390   14.2291 O.2     1  UNL1       -0.4717
     11 C          65.7633   91.9405   15.2352 C.3     1  UNL1        0.2525
     12 S          63.2618   84.2670   13.3160 S.3     1  UNL1       -0.0757
     13 C          64.3436   83.3929   12.7542 C.3     1  UNL1        0.0652
     14 C          64.0664   83.1930   10.1787 C.3     1  UNL1        0.0009
     15 C          64.0766   82.5574   11.5374 C.3     1  UNL1        0.0121
@<TRIPOS>BOND
     1    14    15    1
     2    15    13    1
     3    13    12    1
     4    12     1    1
     5     1     2    2
     6     2     3    1
     7     3     4    2
     8     4     5    1
     9     5    10    1
    10    10    11    1
    11     5     6    2
    12     6     7    1
    13     7     8    1
    14     8     9    2
    15     9     1    1
    16     8     3    1
