@<TRIPOS>MOLECULE
*****
 27 30 0 0 0
SMALL
GASTEIGER

@<TRIPOS>ATOM
      1 C          63.6669   91.2344   12.3303 C.3     1  UNL1        0.2159
      2 N          63.2704   89.8393   11.9473 N.am    1  UNL1       -0.1449
      3 C          62.5933   89.5861   10.6331 C.2     1  UNL1        0.3728
      4 N          62.3125   90.7279    9.7017 N.2     1  UNL1       -0.1329
      5 N          62.1968   88.1910   10.2501 N.pl3   1  UNL1       -0.2247
      6 C          62.4775   87.0492   11.1815 C.3     1  UNL1        0.1559
      7 C          62.2047   85.5779   11.0765 C.3     1  UNL1        0.1327
      8 N          62.7132   84.9219   12.3259 N.pl3   1  UNL1       -0.2740
      9 C          63.3003   85.9877   13.2031 C.3     1  UNL1        0.1079
     10 C          63.1546   87.3025   12.4958 C.3     1  UNL1        0.1498
     11 C          63.5511   88.6975   12.8787 C.2     1  UNL1        0.2919
     12 O          64.2282   88.9508   14.1930 O.2     1  UNL1       -0.2563
     13 H          62.5727   91.6436    9.9530 H       1  UNL1        0.3058
     14 H          61.7523   88.0247    9.3875 H       1  UNL1        0.2454
     15 C          62.6464   83.4573   12.6426 C.ar    1  UNL1        0.2204
     16 N          62.2423   83.0042   14.0143 N.ar    1  UNL1       -0.2097
     17 C          62.1755   81.5395   14.3309 C.ar    1  UNL1        0.1330
     18 C          62.5128   80.5279   13.2759 C.ar    1  UNL1        0.1784
     19 F          62.4460   79.0632   13.5926 F       1  UNL1       -0.2009
     20 C          62.9169   80.9810   11.9043 C.ar    1  UNL1        0.1330
     21 N          62.9837   82.4457   11.5877 N.ar    1  UNL1       -0.2097
     22 C          61.7971   86.6442    9.9075 C.ar    1  UNL1        0.0402
     23 C          62.3947   85.8058    8.8168 C.ar    1  UNL1        0.0124
     24 C          61.3664   85.6501    7.7357 C.ar    1  UNL1        0.0413
     25 BR         61.5407   84.8862    6.4566 Br      1  UNL1       -0.0485
     26 C          60.1334   86.3923    8.1584 C.ar    1  UNL1        0.0419
     27 S          60.3995   87.0067    9.5007 S.2     1  UNL1       -0.0872
@<TRIPOS>BOND
     1     1     2    1
     2     2     3    1
     3     3     4    2
     4     3     5    1
     5     5     6    1
     6     6    22    1
     7    22    23   ar
     8    23    24   ar
     9    24    25    1
    10    24    26   ar
    11    26    27   ar
    12     6     7    1
    13     7     8    1
    14     8    15    1
    15    15    16   ar
    16    16    17   ar
    17    17    18   ar
    18    18    19    1
    19    18    20   ar
    20    20    21   ar
    21     8     9    1
    22    10     9    1
    23    10    11    1
    24    11    12    2
    25    11     2   am
    26    10     6    1
    27    27    22   ar
    28    21    15   ar
    29     4    13    1
    30     5    14    1
@<TRIPOS>MOLECULE
*****
 27 30 0 0 0
SMALL
GASTEIGER

@<TRIPOS>ATOM
      1 C          66.8616   94.1735   13.8218 C.3     1  UNL1        0.2159
      2 N          65.9843   92.9646   13.6828 N.am    1  UNL1       -0.1449
      3 C          65.7988   92.0350   14.8451 C.2     1  UNL1        0.3728
      4 N          66.4905   92.3140   16.1466 N.2     1  UNL1       -0.1329
      5 N          64.9215   90.8261   14.7062 N.pl3   1  UNL1       -0.2247
      6 C          64.2298   90.5471   13.4048 C.3     1  UNL1        0.1559
      7 C          63.3110   89.4429   12.9731 C.3     1  UNL1        0.1327
      8 N          62.9286   89.6902   11.5439 N.pl3   1  UNL1       -0.2740
      9 C          63.6112   90.9473   11.0922 C.3     1  UNL1        0.1079
     10 C          64.4153   91.4769   12.2424 C.3     1  UNL1        0.1498
     11 C          65.2926   92.6857   12.3814 C.2     1  UNL1        0.2919
     12 O          65.4781   93.6154   11.2190 O.2     1  UNL1       -0.2563
     13 H          67.0663   93.1073   16.2379 H       1  UNL1        0.3058
     14 H          64.7998   90.2159   15.4691 H       1  UNL1        0.2454
     15 C          62.0228   88.8312   10.7122 C.ar    1  UNL1        0.2204
     16 N          61.1387   89.4580    9.6751 N.ar    1  UNL1       -0.2097
     17 C          60.2329   88.5989    8.8435 C.ar    1  UNL1        0.1330
     18 C          60.2111   87.1132    9.0489 C.ar    1  UNL1        0.1784
     19 F          59.3053   86.2542    8.2173 F       1  UNL1       -0.2009
     20 C          61.0952   86.4865   10.0861 C.ar    1  UNL1        0.1330
     21 N          62.0010   87.3455   10.9177 N.ar    1  UNL1       -0.2097
     22 C          63.9506   89.5327   14.4739 C.ar    1  UNL1        0.0402
     23 C          64.2564   88.0661   14.3992 C.ar    1  UNL1        0.0124
     24 C          63.8114   87.4338   15.6846 C.ar    1  UNL1        0.0413
     25 BR         63.9269   85.9808   16.0387 Br      1  UNL1       -0.0485
     26 C          63.2306   88.5096   16.5537 C.ar    1  UNL1        0.0419
     27 S          63.3167   89.8069   15.8054 S.2     1  UNL1       -0.0872
@<TRIPOS>BOND
     1     1     2    1
     2     2     3    1
     3     3     4    2
     4     3     5    1
     5     5     6    1
     6     6    22    1
     7    22    23   ar
     8    23    24   ar
     9    24    25    1
    10    24    26   ar
    11    26    27   ar
    12     6     7    1
    13     7     8    1
    14     8    15    1
    15    15    16   ar
    16    16    17   ar
    17    17    18   ar
    18    18    19    1
    19    18    20   ar
    20    20    21   ar
    21     8     9    1
    22    10     9    1
    23    10    11    1
    24    11    12    2
    25    11     2   am
    26    10     6    1
    27    27    22   ar
    28    21    15   ar
    29     4    13    1
    30     5    14    1
@<TRIPOS>MOLECULE
*****
 27 30 0 0 0
SMALL
GASTEIGER

@<TRIPOS>ATOM
      1 C          61.0069   89.7146    9.3545 C.3     1  UNL1        0.2159
      2 N          61.9151   89.7757   10.5468 N.am    1  UNL1       -0.1449
      3 C          61.7770   88.7659   11.6473 C.2     1  UNL1        0.3728
      4 N          60.7307   87.6949   11.5556 N.2     1  UNL1       -0.1329
      5 N          62.6852   88.8270   12.8396 N.pl3   1  UNL1       -0.2247
      6 C          63.7314   89.8980   12.9313 C.3     1  UNL1        0.1559
      7 C          64.7619   90.2075   13.9764 C.3     1  UNL1        0.1327
      8 N          65.5368   91.4087   13.5217 N.pl3   1  UNL1       -0.2740
      9 C          64.9853   91.8415   12.1956 C.3     1  UNL1        0.1079
     10 C          63.8695   90.9078   11.8307 C.3     1  UNL1        0.1498
     11 C          62.9613   90.8467   10.6385 C.2     1  UNL1        0.2919
     12 O          63.0993   91.8565    9.5379 O.2     1  UNL1       -0.2563
     13 H          60.1346   87.6548   10.7731 H       1  UNL1        0.3058
     14 H          62.5946   88.1642   13.5619 H       1  UNL1        0.2454
     15 C          66.6652   92.0623   14.2630 C.ar    1  UNL1        0.2204
     16 N          66.4038   92.7560   15.5670 N.ar    1  UNL1       -0.2097
     17 C          67.5323   93.4096   16.3082 C.ar    1  UNL1        0.1330
     18 C          68.9221   93.3696   15.7455 C.ar    1  UNL1        0.1784
     19 F          70.0505   94.0233   16.4868 F       1  UNL1       -0.2009
     20 C          69.1836   92.6759   14.4415 C.ar    1  UNL1        0.1330
     21 N          68.0551   92.0223   13.7003 N.ar    1  UNL1       -0.2097
     22 C          63.7121   88.9620   14.1032 C.ar    1  UNL1        0.0402
     23 C          64.0552   87.5021   14.0715 C.ar    1  UNL1        0.0124
     24 C          63.9013   86.9595   15.4614 C.ar    1  UNL1        0.0413
     25 BR         64.1432   85.5413   15.8860 Br      1  UNL1       -0.0485
     26 C          63.4631   88.0839   16.3522 C.ar    1  UNL1        0.0419
     27 S          63.3462   89.3216   15.5128 S.2     1  UNL1       -0.0872
@<TRIPOS>BOND
     1     1     2    1
     2     2     3    1
     3     3     4    2
     4     3     5    1
     5     5     6    1
     6     6    22    1
     7    22    23   ar
     8    23    24   ar
     9    24    25    1
    10    24    26   ar
    11    26    27   ar
    12     6     7    1
    13     7     8    1
    14     8    15    1
    15    15    16   ar
    16    16    17   ar
    17    17    18   ar
    18    18    19    1
    19    18    20   ar
    20    20    21   ar
    21     8     9    1
    22    10     9    1
    23    10    11    1
    24    11    12    2
    25    11     2   am
    26    10     6    1
    27    27    22   ar
    28    21    15   ar
    29     4    13    1
    30     5    14    1
@<TRIPOS>MOLECULE
*****
 27 30 0 0 0
SMALL
GASTEIGER

@<TRIPOS>ATOM
      1 C          64.2398   83.1570   14.8245 C.3     1  UNL1        0.2159
      2 N          63.8166   84.3679   14.0469 N.am    1  UNL1       -0.1449
      3 C          64.2912   85.7290   14.4614 C.2     1  UNL1        0.3728
      4 N          65.1892   85.8794   15.6536 N.2     1  UNL1       -0.1329
      5 N          63.8681   86.9400   13.6837 N.pl3   1  UNL1       -0.2247
      6 C          62.9702   86.7896   12.4916 C.3     1  UNL1        0.1559
      7 C          62.3916   87.7926   11.5381 C.3     1  UNL1        0.1327
      8 N          61.5592   87.0512   10.5343 N.pl3   1  UNL1       -0.2740
      9 C          61.6235   85.5901   10.8674 C.3     1  UNL1        0.1079
     10 C          62.4956   85.4284   12.0771 C.3     1  UNL1        0.1498
     11 C          62.9188   84.2176   12.8547 C.2     1  UNL1        0.2919
     12 O          62.4441   82.8563   12.4402 O.2     1  UNL1       -0.2563
     13 H          65.4669   85.0847   16.1640 H       1  UNL1        0.3058
     14 H          64.1796   87.8334   13.9558 H       1  UNL1        0.2454
     15 C          60.7965   87.6635    9.3970 C.ar    1  UNL1        0.2204
     16 N          60.0288   86.7881    8.4514 N.ar    1  UNL1       -0.2097
     17 C          59.2661   87.4005    7.3141 C.ar    1  UNL1        0.1330
     18 C          59.2711   88.8882    7.1224 C.ar    1  UNL1        0.1784
     19 F          58.5084   89.5004    5.9852 F       1  UNL1       -0.2009
     20 C          60.0388   89.7636    8.0681 C.ar    1  UNL1        0.1330
     21 N          60.8015   89.1512    9.2054 N.ar    1  UNL1       -0.2097
     22 C          63.3626   88.2073   12.7850 C.ar    1  UNL1        0.0402
     23 C          64.2315   88.6651   13.9188 C.ar    1  UNL1        0.0124
     24 C          64.3608   90.1569   13.8306 C.ar    1  UNL1        0.0413
     25 BR         65.1419   91.0310   14.7664 Br      1  UNL1       -0.0485
     26 C          63.5719   90.6212   12.6423 C.ar    1  UNL1        0.0419
     27 S          62.9549   89.4162   11.9961 S.2     1  UNL1       -0.0872
@<TRIPOS>BOND
     1     1     2    1
     2     2     3    1
     3     3     4    2
     4     3     5    1
     5     5     6    1
     6     6    22    1
     7    22    23   ar
     8    23    24   ar
     9    24    25    1
    10    24    26   ar
    11    26    27   ar
    12     6     7    1
    13     7     8    1
    14     8    15    1
    15    15    16   ar
    16    16    17   ar
    17    17    18   ar
    18    18    19    1
    19    18    20   ar
    20    20    21   ar
    21     8     9    1
    22    10     9    1
    23    10    11    1
    24    11    12    2
    25    11     2   am
    26    10     6    1
    27    27    22   ar
    28    21    15   ar
    29     4    13    1
    30     5    14    1
@<TRIPOS>MOLECULE
*****
 27 30 0 0 0
SMALL
GASTEIGER

@<TRIPOS>ATOM
      1 C          60.4371   87.9951    8.9887 C.3     1  UNL1        0.2159
      2 N          61.3841   88.1716   10.1386 N.am    1  UNL1       -0.1449
      3 C          61.7191   87.0052   11.0201 C.2     1  UNL1        0.3728
      4 N          61.1070   85.6622   10.7519 N.2     1  UNL1       -0.1329
      5 N          62.6661   87.1817   12.1700 N.pl3   1  UNL1       -0.2247
      6 C          63.2781   88.5246   12.4382 C.3     1  UNL1        0.1559
      7 C          64.2376   88.9985   13.4893 C.3     1  UNL1        0.1327
      8 N          64.4956   90.4578   13.2572 N.pl3   1  UNL1       -0.2740
      9 C          63.6956   90.8858   12.0628 C.3     1  UNL1        0.1079
     10 C          62.9431   89.6910   11.5566 C.3     1  UNL1        0.1498
     11 C          61.9961   89.5145   10.4068 C.2     1  UNL1        0.2919
     12 O          61.6611   90.6810    9.5252 O.2     1  UNL1       -0.2563
     13 H          60.4855   85.5463    9.9972 H       1  UNL1        0.3058
     14 H          62.8860   86.4161   12.7486 H       1  UNL1        0.2454
     15 C          65.3957   91.3350   14.0759 C.ar    1  UNL1        0.2204
     16 N          66.7089   91.7939   13.5146 N.ar    1  UNL1       -0.2097
     17 C          67.6089   92.6712   14.3334 C.ar    1  UNL1        0.1330
     18 C          67.1958   93.0896   15.7134 C.ar    1  UNL1        0.1784
     19 F          68.0959   93.9669   16.5321 F       1  UNL1       -0.2009
     20 C          65.8827   92.6307   16.2747 C.ar    1  UNL1        0.1330
     21 N          64.9827   91.7534   15.4559 N.ar    1  UNL1       -0.2097
     22 C          63.7053   87.4562   13.4005 C.ar    1  UNL1        0.0402
     23 C          63.6721   85.9780   13.1484 C.ar    1  UNL1        0.0124
     24 C          64.1870   85.2867   14.3760 C.ar    1  UNL1        0.0413
     25 BR         64.3260   83.8046   14.5604 Br      1  UNL1       -0.0485
     26 C          64.5385   86.3377   15.3868 C.ar    1  UNL1        0.0419
     27 S          64.2407   87.6786   14.7839 S.2     1  UNL1       -0.0872
@<TRIPOS>BOND
     1     1     2    1
     2     2     3    1
     3     3     4    2
     4     3     5    1
     5     5     6    1
     6     6    22    1
     7    22    23   ar
     8    23    24   ar
     9    24    25    1
    10    24    26   ar
    11    26    27   ar
    12     6     7    1
    13     7     8    1
    14     8    15    1
    15    15    16   ar
    16    16    17   ar
    17    17    18   ar
    18    18    19    1
    19    18    20   ar
    20    20    21   ar
    21     8     9    1
    22    10     9    1
    23    10    11    1
    24    11    12    2
    25    11     2   am
    26    10     6    1
    27    27    22   ar
    28    21    15   ar
    29     4    13    1
    30     5    14    1
@<TRIPOS>MOLECULE
*****
 27 30 0 0 0
SMALL
GASTEIGER

@<TRIPOS>ATOM
      1 C          58.6995   88.0474    6.6877 C.3     1  UNL1        0.2159
      2 N          59.6564   87.9128    7.8351 N.am    1  UNL1       -0.1449
      3 C          60.1939   86.5634    8.2091 C.2     1  UNL1        0.3728
      4 N          59.7746   85.3483    7.4357 N.2     1  UNL1       -0.1329
      5 N          61.1507   86.4288    9.3565 N.pl3   1  UNL1       -0.2247
      6 C          61.5699   87.6438   10.1299 C.3     1  UNL1        0.1559
      7 C          62.4916   87.8200   11.3001 C.3     1  UNL1        0.1327
      8 N          62.5236   89.2785   11.6493 N.pl3   1  UNL1       -0.2740
      9 C          61.6218   90.0036   10.6949 C.3     1  UNL1        0.1079
     10 C          61.0324   88.9933    9.7558 C.3     1  UNL1        0.1498
     11 C          60.0756   89.1278    8.6084 C.2     1  UNL1        0.2919
     12 O          59.5380   90.4773    8.2344 O.2     1  UNL1       -0.2563
     13 H          59.1466   85.4366    6.6827 H       1  UNL1        0.3058
     14 H          61.5035   85.5431    9.6020 H       1  UNL1        0.2454
     15 C          63.3181   89.9023   12.7582 C.ar    1  UNL1        0.2204
     16 N          63.1520   89.4136   14.1666 N.ar    1  UNL1       -0.2097
     17 C          63.9465   90.0376   15.2755 C.ar    1  UNL1        0.1330
     18 C          64.9070   91.1500   14.9760 C.ar    1  UNL1        0.1784
     19 F          65.7015   91.7739   16.0849 F       1  UNL1       -0.2009
     20 C          65.0731   91.6387   13.5676 C.ar    1  UNL1        0.1330
     21 N          64.2786   91.0148   12.4587 N.ar    1  UNL1       -0.2097
     22 C          62.1875   86.3669   10.6177 C.ar    1  UNL1        0.0402
     23 C          62.8604   85.3313    9.7664 C.ar    1  UNL1        0.0124
     24 C          63.3294   84.2258   10.6652 C.ar    1  UNL1        0.0413
     25 BR         64.0542   82.9856   10.2330 Br      1  UNL1       -0.0485
     26 C          62.9464   84.5781   12.0720 C.ar    1  UNL1        0.0419
     27 S          62.2407   85.9014   12.0427 S.2     1  UNL1       -0.0872
@<TRIPOS>BOND
     1     1     2    1
     2     2     3    1
     3     3     4    2
     4     3     5    1
     5     5     6    1
     6     6    22    1
     7    22    23   ar
     8    23    24   ar
     9    24    25    1
    10    24    26   ar
    11    26    27   ar
    12     6     7    1
    13     7     8    1
    14     8    15    1
    15    15    16   ar
    16    16    17   ar
    17    17    18   ar
    18    18    19    1
    19    18    20   ar
    20    20    21   ar
    21     8     9    1
    22    10     9    1
    23    10    11    1
    24    11    12    2
    25    11     2   am
    26    10     6    1
    27    27    22   ar
    28    21    15   ar
    29     4    13    1
    30     5    14    1
@<TRIPOS>MOLECULE
*****
 27 30 0 0 0
SMALL
GASTEIGER

@<TRIPOS>ATOM
      1 C          63.2495   80.3346   13.9707 C.3     1  UNL1        0.2159
      2 N          63.2012   81.7151   13.3860 N.am    1  UNL1       -0.1449
      3 C          62.7796   81.9113   11.9599 C.2     1  UNL1        0.3728
      4 N          62.4063   80.7268   11.1185 N.2     1  UNL1       -0.1329
      5 N          62.7313   83.2918   11.3752 N.pl3   1  UNL1       -0.2247
      6 C          63.1046   84.4761   12.2166 C.3     1  UNL1        0.1559
      7 C          63.1528   85.9451   11.9168 C.3     1  UNL1        0.1327
      8 N          63.6042   86.6567   13.1577 N.pl3   1  UNL1       -0.2740
      9 C          63.8350   85.6277   14.2243 C.3     1  UNL1        0.1079
     10 C          63.5262   84.2799   13.6427 C.3     1  UNL1        0.1498
     11 C          63.5745   82.8994   14.2274 C.2     1  UNL1        0.2919
     12 O          63.9962   82.7032   15.6535 O.2     1  UNL1       -0.2563
     13 H          62.4380   79.8208   11.5022 H       1  UNL1        0.3058
     14 H          62.4546   83.4205   10.4392 H       1  UNL1        0.2454
     15 C          63.7918   88.1376   13.3059 C.ar    1  UNL1        0.2204
     16 N          63.2138   89.0727   12.2854 N.ar    1  UNL1       -0.2097
     17 C          63.4015   90.5535   12.4338 C.ar    1  UNL1        0.1330
     18 C          64.1672   91.0992   13.6025 C.ar    1  UNL1        0.1784
     19 F          64.3549   92.5800   13.7507 F       1  UNL1       -0.2009
     20 C          64.7453   90.1641   14.6229 C.ar    1  UNL1        0.1330
     21 N          64.5576   88.6832   14.4746 N.ar    1  UNL1       -0.2097
     22 C          62.7049   84.8259   10.8138 C.ar    1  UNL1        0.0402
     23 C          61.4914   85.6110   10.4126 C.ar    1  UNL1        0.0124
     24 C          61.4851   85.7224    8.9167 C.ar    1  UNL1        0.0413
     25 BR         60.4507   86.4264    8.0894 Br      1  UNL1       -0.0485
     26 C          62.6947   85.0061    8.3934 C.ar    1  UNL1        0.0419
     27 S          63.4486   84.4521    9.5660 S.2     1  UNL1       -0.0872
@<TRIPOS>BOND
     1     1     2    1
     2     2     3    1
     3     3     4    2
     4     3     5    1
     5     5     6    1
     6     6    22    1
     7    22    23   ar
     8    23    24   ar
     9    24    25    1
    10    24    26   ar
    11    26    27   ar
    12     6     7    1
    13     7     8    1
    14     8    15    1
    15    15    16   ar
    16    16    17   ar
    17    17    18   ar
    18    18    19    1
    19    18    20   ar
    20    20    21   ar
    21     8     9    1
    22    10     9    1
    23    10    11    1
    24    11    12    2
    25    11     2   am
    26    10     6    1
    27    27    22   ar
    28    21    15   ar
    29     4    13    1
    30     5    14    1
@<TRIPOS>MOLECULE
*****
 27 30 0 0 0
SMALL
GASTEIGER

@<TRIPOS>ATOM
      1 C          60.7933   91.1415    5.0167 C.3     1  UNL1        0.2159
      2 N          60.8437   91.9070    3.7277 N.am    1  UNL1       -0.1449
      3 C          59.5842   92.4724    3.1414 C.2     1  UNL1        0.3728
      4 N          58.2740   92.2723    3.8441 N.2     1  UNL1       -0.1329
      5 N          59.6346   93.2379    1.8524 N.pl3   1  UNL1       -0.2247
      6 C          60.9446   93.4380    1.1497 C.3     1  UNL1        0.1559
      7 C          61.3024   94.1430   -0.1250 C.3     1  UNL1        0.1327
      8 N          62.7831   94.0132   -0.3265 N.pl3   1  UNL1       -0.2740
      9 C          63.3405   93.2282    0.8237 C.3     1  UNL1        0.1079
     10 C          62.2042   92.8726    1.7361 C.3     1  UNL1        0.1498
     11 C          62.1537   92.1071    3.0251 C.2     1  UNL1        0.2919
     12 O          63.4133   91.5418    3.6114 O.2     1  UNL1       -0.2563
     13 H          58.2409   91.7698    4.6901 H       1  UNL1        0.3058
     14 H          58.8079   93.6090    1.4675 H       1  UNL1        0.2454
     15 C          63.5687   94.5707   -1.4764 C.ar    1  UNL1        0.2204
     16 N          63.5743   93.8583   -2.7964 N.ar    1  UNL1       -0.2097
     17 C          64.3599   94.4159   -3.9462 C.ar    1  UNL1        0.1330
     18 C          65.1398   95.6858   -3.7761 C.ar    1  UNL1        0.1784
     19 F          65.9253   96.2433   -4.9259 F       1  UNL1       -0.2009
     20 C          65.1341   96.3983   -2.4561 C.ar    1  UNL1        0.1330
     21 N          64.3486   95.8407   -1.3062 N.ar    1  UNL1       -0.2097
     22 C          59.7740   94.0586    0.4465 C.ar    1  UNL1        0.0402
     23 C          58.6693   93.3188   -0.2480 C.ar    1  UNL1        0.0124
     24 C          57.7152   94.3309   -0.8095 C.ar    1  UNL1        0.0413
     25 BR         56.4654   94.0305   -1.5827 Br      1  UNL1       -0.0485
     26 C          58.2302   95.6962   -0.4620 C.ar    1  UNL1        0.0419
     27 S          59.5027   95.5279    0.3142 S.2     1  UNL1       -0.0872
@<TRIPOS>BOND
     1     1     2    1
     2     2     3    1
     3     3     4    2
     4     3     5    1
     5     5     6    1
     6     6    22    1
     7    22    23   ar
     8    23    24   ar
     9    24    25    1
    10    24    26   ar
    11    26    27   ar
    12     6     7    1
    13     7     8    1
    14     8    15    1
    15    15    16   ar
    16    16    17   ar
    17    17    18   ar
    18    18    19    1
    19    18    20   ar
    20    20    21   ar
    21     8     9    1
    22    10     9    1
    23    10    11    1
    24    11    12    2
    25    11     2   am
    26    10     6    1
    27    27    22   ar
    28    21    15   ar
    29     4    13    1
    30     5    14    1
@<TRIPOS>MOLECULE
*****
 27 30 0 0 0
SMALL
GASTEIGER

@<TRIPOS>ATOM
      1 C          64.9362   94.0686    9.4819 C.3     1  UNL1        0.2159
      2 N          65.0880   93.3066   10.7650 N.am    1  UNL1       -0.1449
      3 C          66.0659   93.7723   11.8026 C.2     1  UNL1        0.3728
      4 N          66.8921   95.0001   11.5572 N.2     1  UNL1       -0.1329
      5 N          66.2177   93.0103   13.0858 N.pl3   1  UNL1       -0.2247
      6 C          65.3916   91.7826   13.3312 C.3     1  UNL1        0.1559
      7 C          65.3236   90.8340   14.4912 C.3     1  UNL1        0.1327
      8 N          64.3036   89.7820   14.1704 N.pl3   1  UNL1       -0.2740
      9 C          63.7413   90.0805   12.8121 C.3     1  UNL1        0.1079
     10 C          64.4137   91.3169   12.2935 C.3     1  UNL1        0.1498
     11 C          64.2619   92.0789   11.0104 C.2     1  UNL1        0.2919
     12 O          63.2840   91.6132    9.9727 O.2     1  UNL1       -0.2563
     13 H          66.7924   95.5002   10.7151 H       1  UNL1        0.3058
     14 H          66.8596   93.3160   13.7669 H       1  UNL1        0.2454
     15 C          63.9143   88.6333   15.0528 C.ar    1  UNL1        0.2204
     16 N          64.2746   87.2309   14.6611 N.ar    1  UNL1       -0.2097
     17 C          63.8852   86.0822   15.5436 C.ar    1  UNL1        0.1330
     18 C          63.1356   86.3358   16.8179 C.ar    1  UNL1        0.1784
     19 F          62.7463   85.1870   17.7003 F       1  UNL1       -0.2009
     20 C          62.7752   87.7381   17.2096 C.ar    1  UNL1        0.1330
     21 N          63.1646   88.8869   16.3271 N.ar    1  UNL1       -0.2097
     22 C          66.3235   92.1258   14.4554 C.ar    1  UNL1        0.0402
     23 C          67.8203   92.1794   14.3747 C.ar    1  UNL1        0.0124
     24 C          68.3440   92.5623   15.7272 C.ar    1  UNL1        0.0413
     25 BR         69.7875   92.7323   16.0980 Br      1  UNL1       -0.0485
     26 C          67.1709   92.7454   16.6437 C.ar    1  UNL1        0.0419
     27 S          65.9221   92.4756   15.8577 S.2     1  UNL1       -0.0872
@<TRIPOS>BOND
     1     1     2    1
     2     2     3    1
     3     3     4    2
     4     3     5    1
     5     5     6    1
     6     6    22    1
     7    22    23   ar
     8    23    24   ar
     9    24    25    1
    10    24    26   ar
    11    26    27   ar
    12     6     7    1
    13     7     8    1
    14     8    15    1
    15    15    16   ar
    16    16    17   ar
    17    17    18   ar
    18    18    19    1
    19    18    20   ar
    20    20    21   ar
    21     8     9    1
    22    10     9    1
    23    10    11    1
    24    11    12    2
    25    11     2   am
    26    10     6    1
    27    27    22   ar
    28    21    15   ar
    29     4    13    1
    30     5    14    1
