@<TRIPOS>MOLECULE
*****
 45 51 0 0 0
SMALL
GASTEIGER

@<TRIPOS>ATOM
      1 C          59.1584   95.6145   -0.7361 C.ar    1  UNL1        0.1669
      2 N          60.3935   95.0291   -1.3539 N.ar    1  UNL1       -0.2221
      3 C          61.4943   95.0907   -0.3368 C.ar    1  UNL1        0.1307
      4 C          62.9302   94.6596   -0.3846 C.ar    1  UNL1        0.0777
      5 C          63.8113   94.8520    0.8141 C.ar    1  UNL1        0.0893
      6 CL         65.2473   94.4209    0.7663 Cl      1  UNL1       -0.0794
      7 C          63.2565   95.4754    2.0604 C.ar    1  UNL1        0.0863
      8 N          61.8206   95.9065    2.1082 N.ar    1  UNL1       -0.3354
      9 C          60.9395   95.7141    0.9096 C.ar    1  UNL1        0.1613
     10 N          59.4958   96.0378    0.6628 N.ar    1  UNL1       -0.2080
     11 H          61.4564   96.3156    2.9262 H       1  UNL1        0.1675
     12 C          57.7389   96.0035   -2.8771 C.ar    1  UNL1        0.1428
     13 C          56.4011   96.1413   -3.5414 C.ar    1  UNL1        0.0515
     14 C          55.1450   96.0280   -2.7293 C.ar    1  UNL1        0.0509
     15 C          55.2268   95.7768   -1.2527 C.ar    1  UNL1        0.0148
     16 C          56.5646   95.6389   -0.5884 C.ar    1  UNL1        0.0074
     17 C          57.8206   95.7523   -1.4005 C.ar    1  UNL1        0.0698
     18 N          53.8073   96.1658   -3.3937 N.pl3   1  UNL1       -0.3073
     19 C          53.7015   96.0956   -4.8883 C.3     1  UNL1        0.0922
     20 C          52.3638   96.2335   -5.5527 C.3     1  UNL1        0.0374
     21 C          51.1319   96.4415   -4.7226 C.3     1  UNL1        0.0611
     22 C          51.2377   96.5116   -3.2279 C.3     1  UNL1        0.0374
     23 C          52.5754   96.3738   -2.5635 C.3     1  UNL1        0.0922
     24 N          49.7942   96.5793   -5.3870 N.3     1  UNL1       -0.2696
     25 C          48.5429   96.5844   -4.5599 C.3     1  UNL1        0.1046
     26 C          47.2051   96.7223   -5.2243 C.3     1  UNL1        0.1595
     27 O          47.1187   96.8550   -6.7159 O.3     1  UNL1       -0.3508
     28 C          48.3700   96.8499   -7.5431 C.3     1  UNL1        0.1595
     29 C          49.7077   96.7120   -6.8787 C.3     1  UNL1        0.1046
     30 C          58.9205   96.5133   -5.1340 C.3     1  UNL1        0.2525
     31 O          58.9948   96.1169   -3.6892 O.3     1  UNL1       -0.4713
     32 N          63.4851   94.0361   -1.6310 N.pl3   1  UNL1       -0.3313
     33 H          63.3605   93.0738   -1.7976 H       1  UNL1        0.1469
     34 C          64.2298   94.8788   -2.6236 C.3     1  UNL1        0.0819
     35 C          64.0129   94.8916   -4.1077 C.3     1  UNL1        0.0983
     36 C          64.9713   95.8773   -4.7077 C.3     1  UNL1        0.0323
     37 C          66.0637   96.8551   -4.3904 C.2     1  UNL1       -0.0304
     38 C          66.2806   96.8422   -2.9063 C.2     1  UNL1       -0.0294
     39 C          65.3222   95.8565   -2.3063 C.3     1  UNL1        0.0404
     40 C          64.5130   95.2602   -3.4196 C.3     1  UNL1        0.0109
     41 C          63.0131   94.0641   -4.8599 C.2     1  UNL1        0.2208
     42 N          63.4775   93.0931   -5.9046 N.am    1  UNL1       -0.3288
     43 O          61.5490   94.2076   -4.5673 O.2     1  UNL1       -0.2753
     44 H          64.4385   92.9989   -6.0966 H       1  UNL1        0.1449
     45 H          62.8214   92.5500   -6.3982 H       1  UNL1        0.1449
@<TRIPOS>BOND
     1    30    31    1
     2    31    12    1
     3    12    13   ar
     4    13    14   ar
     5    14    18    1
     6    18    19    1
     7    19    20    1
     8    20    21    1
     9    21    24    1
    10    24    25    1
    11    25    26    1
    12    26    27    1
    13    27    28    1
    14    28    29    1
    15    21    22    1
    16    22    23    1
    17    14    15   ar
    18    15    16   ar
    19    16    17   ar
    20    17     1    1
    21     1     2   ar
    22     2     3   ar
    23     3     4   ar
    24     4    32    1
    25    34    32    1
    26    34    35    1
    27    35    41    1
    28    41    42   am
    29    41    43    2
    30    35    36    1
    31    36    37    1
    32    37    38    2
    33    39    38    1
    34    39    40    1
    35     4     5   ar
    36     5     6    1
    37     5     7   ar
    38     7     8   ar
    39     8     9   ar
    40     9    10   ar
    41    17    12   ar
    42    10     1   ar
    43    23    18    1
    44     9     3    1
    45    29    24    1
    46    39    34    1
    47    40    36    1
    48    32    33    1
    49    42    44    1
    50    42    45    1
    51     8    11    1
@<TRIPOS>MOLECULE
*****
 45 51 0 0 0
SMALL
GASTEIGER

@<TRIPOS>ATOM
      1 C          59.2442   95.6209   -0.7734 C.ar    1  UNL1        0.1669
      2 N          60.3975   94.7955   -1.2617 N.ar    1  UNL1       -0.2221
      3 C          61.5347   94.9732   -0.2998 C.ar    1  UNL1        0.1307
      4 C          62.9223   94.4042   -0.2700 C.ar    1  UNL1        0.0777
      5 C          63.8593   94.7706    0.8427 C.ar    1  UNL1        0.0893
      6 CL         65.2469   94.2015    0.8725 Cl      1  UNL1       -0.0794
      7 C          63.4088   95.7058    1.9253 C.ar    1  UNL1        0.0863
      8 N          62.0212   96.2748    1.8955 N.ar    1  UNL1       -0.3354
      9 C          61.0842   95.9085    0.7829 C.ar    1  UNL1        0.1613
     10 N          59.6685   96.3088    0.4902 N.ar    1  UNL1       -0.2080
     11 H          61.7255   96.8886    2.6061 H       1  UNL1        0.1675
     12 C          57.7969   96.2759   -2.8292 C.ar    1  UNL1        0.1428
     13 C          56.4547   96.3929   -3.4887 C.ar    1  UNL1        0.0515
     14 C          55.2177   95.9720   -2.7520 C.ar    1  UNL1        0.0509
     15 C          55.3229   95.4341   -1.3557 C.ar    1  UNL1        0.0148
     16 C          56.6651   95.3171   -0.6962 C.ar    1  UNL1        0.0074
     17 C          57.9021   95.7380   -1.4329 C.ar    1  UNL1        0.0698
     18 N          53.8756   96.0891   -3.4115 N.pl3   1  UNL1       -0.3073
     19 C          52.6246   95.9243   -2.6006 C.3     1  UNL1        0.0922
     20 C          51.2825   96.0413   -3.2601 C.3     1  UNL1        0.0374
     21 C          51.1914   96.3231   -4.7305 C.3     1  UNL1        0.0611
     22 C          52.4424   96.4879   -5.5416 C.3     1  UNL1        0.0374
     23 C          53.7846   96.3709   -4.8820 C.3     1  UNL1        0.0922
     24 N          49.8492   96.4402   -5.3901 N.3     1  UNL1       -0.2696
     25 C          49.7364   96.3462   -6.8829 C.3     1  UNL1        0.1046
     26 C          48.3943   96.4632   -7.5424 C.3     1  UNL1        0.1595
     27 O          47.1650   96.6742   -6.7092 O.3     1  UNL1       -0.3508
     28 C          47.2778   96.7682   -5.2164 C.3     1  UNL1        0.1595
     29 C          48.6199   96.6512   -4.5568 C.3     1  UNL1        0.1046
     30 C          59.1086   96.5416   -5.0561 C.3     1  UNL1        0.2525
     31 O          59.0338   96.6967   -3.5660 O.3     1  UNL1       -0.4713
     32 N          63.3729   93.4689   -1.3527 N.pl3   1  UNL1       -0.3313
     33 H          63.6009   92.5364   -1.1342 H       1  UNL1        0.1469
     34 C          63.4761   93.9543   -2.7681 C.3     1  UNL1        0.0819
     35 C          64.2232   95.1698   -3.2310 C.3     1  UNL1        0.0983
     36 C          64.0592   95.2763   -4.7183 C.3     1  UNL1        0.0323
     37 C          63.4334   94.6315   -5.9193 C.2     1  UNL1       -0.0304
     38 C          62.6862   93.4160   -5.4564 C.2     1  UNL1       -0.0294
     39 C          62.8503   93.3096   -3.9692 C.3     1  UNL1        0.0404
     40 C          63.6988   94.4593   -3.5130 C.3     1  UNL1        0.0109
     41 C          64.9984   96.1133   -2.3597 C.2     1  UNL1        0.2208
     42 N          64.3058   96.8541   -1.2546 N.am    1  UNL1       -0.3288
     43 O          66.4661   96.3158   -2.5937 O.2     1  UNL1       -0.2753
     44 H          63.3425   96.7211   -1.1010 H       1  UNL1        0.1449
     45 H          64.8146   97.4733   -0.6827 H       1  UNL1        0.1449
@<TRIPOS>BOND
     1    30    31    1
     2    31    12    1
     3    12    13   ar
     4    13    14   ar
     5    14    18    1
     6    18    19    1
     7    19    20    1
     8    20    21    1
     9    21    24    1
    10    24    25    1
    11    25    26    1
    12    26    27    1
    13    27    28    1
    14    28    29    1
    15    21    22    1
    16    22    23    1
    17    14    15   ar
    18    15    16   ar
    19    16    17   ar
    20    17     1    1
    21     1     2   ar
    22     2     3   ar
    23     3     4   ar
    24     4    32    1
    25    34    32    1
    26    34    35    1
    27    35    41    1
    28    41    42   am
    29    41    43    2
    30    35    36    1
    31    36    37    1
    32    37    38    2
    33    39    38    1
    34    39    40    1
    35     4     5   ar
    36     5     6    1
    37     5     7   ar
    38     7     8   ar
    39     8     9   ar
    40     9    10   ar
    41    17    12   ar
    42    10     1   ar
    43    23    18    1
    44     9     3    1
    45    29    24    1
    46    39    34    1
    47    40    36    1
    48    32    33    1
    49    42    44    1
    50    42    45    1
    51     8    11    1
@<TRIPOS>MOLECULE
*****
 45 51 0 0 0
SMALL
GASTEIGER

@<TRIPOS>ATOM
      1 C          64.9299   90.6193   13.4792 C.ar    1  UNL1        0.1669
      2 N          64.8216   91.5449   12.3038 N.ar    1  UNL1       -0.2221
      3 C          65.4786   92.8418   12.6731 C.ar    1  UNL1        0.1307
      4 C          65.6749   94.1197   11.9125 C.ar    1  UNL1        0.0777
      5 C          66.3857   95.2736   12.5556 C.ar    1  UNL1        0.0893
      6 CL         66.5820   96.5516   11.7951 Cl      1  UNL1       -0.0794
      7 C          66.9000   95.1495   13.9591 C.ar    1  UNL1        0.0863
      8 N          66.7037   93.8716   14.7197 N.ar    1  UNL1       -0.3354
      9 C          65.9930   92.7178   14.0766 C.ar    1  UNL1        0.1613
     10 N          65.6539   91.3442   14.5749 N.ar    1  UNL1       -0.2080
     11 H          67.0414   93.7902   15.6409 H       1  UNL1        0.1675
     12 C          63.4804   88.7079   12.4816 C.ar    1  UNL1        0.1428
     13 C          62.9567   87.3039   12.5495 C.ar    1  UNL1        0.0515
     14 C          63.3589   86.4074   13.6828 C.ar    1  UNL1        0.0509
     15 C          64.2848   86.9148   14.7483 C.ar    1  UNL1        0.0148
     16 C          64.8084   88.3188   14.6804 C.ar    1  UNL1        0.0074
     17 C          64.4062   89.2154   13.5471 C.ar    1  UNL1        0.0698
     18 N          62.8352   85.0034   13.7507 N.pl3   1  UNL1       -0.3073
     19 C          62.7475   84.1746   12.5035 C.3     1  UNL1        0.0922
     20 C          62.2238   82.7707   12.5714 C.3     1  UNL1        0.0374
     21 C          61.7879   82.1954   13.8863 C.3     1  UNL1        0.0611
     22 C          61.8757   83.0242   15.1335 C.3     1  UNL1        0.0374
     23 C          62.3994   84.4282   15.0657 C.3     1  UNL1        0.0922
     24 N          61.2642   80.7915   13.9541 N.3     1  UNL1       -0.2696
     25 C          59.8205   80.5443   14.2777 C.3     1  UNL1        0.1046
     26 C          59.2969   79.1403   14.3455 C.3     1  UNL1        0.1595
     27 O          60.2169   77.9835   14.0898 O.3     1  UNL1       -0.3508
     28 C          61.6605   78.2307   13.7663 C.3     1  UNL1        0.1595
     29 C          62.1842   79.6347   13.6984 C.3     1  UNL1        0.1046
     30 C          62.0139   89.1659   10.3864 C.3     1  UNL1        0.2525
     31 O          63.0781   89.6044   11.3483 O.3     1  UNL1       -0.4713
     32 N          65.1605   94.2439   10.5089 N.pl3   1  UNL1       -0.3313
     33 H          64.2406   93.9656   10.2954 H       1  UNL1        0.1469
     34 C          66.0476   94.7920    9.4308 C.3     1  UNL1        0.0819
     35 C          67.3741   94.2316    9.0107 C.3     1  UNL1        0.0983
     36 C          67.9104   95.0900    7.9037 C.3     1  UNL1        0.0323
     37 C          67.6269   96.2948    7.0563 C.2     1  UNL1       -0.0304
     38 C          66.3004   96.8552    7.4763 C.2     1  UNL1       -0.0294
     39 C          65.7641   95.9968    8.5833 C.3     1  UNL1        0.0404
     40 C          66.7591   94.9058    8.8475 C.3     1  UNL1        0.0109
     41 C          68.0463   93.0246    9.5951 C.2     1  UNL1        0.2208
     42 N          69.5388   92.9945    9.7412 N.am    1  UNL1       -0.3288
     43 O          67.2259   91.8478   10.0334 O.2     1  UNL1       -0.2753
     44 H          70.0773   93.7669    9.4536 H       1  UNL1        0.1449
     45 H          69.9800   92.2023   10.1248 H       1  UNL1        0.1449
@<TRIPOS>BOND
     1    30    31    1
     2    31    12    1
     3    12    13   ar
     4    13    14   ar
     5    14    18    1
     6    18    19    1
     7    19    20    1
     8    20    21    1
     9    21    24    1
    10    24    25    1
    11    25    26    1
    12    26    27    1
    13    27    28    1
    14    28    29    1
    15    21    22    1
    16    22    23    1
    17    14    15   ar
    18    15    16   ar
    19    16    17   ar
    20    17     1    1
    21     1     2   ar
    22     2     3   ar
    23     3     4   ar
    24     4    32    1
    25    34    32    1
    26    34    35    1
    27    35    41    1
    28    41    42   am
    29    41    43    2
    30    35    36    1
    31    36    37    1
    32    37    38    2
    33    39    38    1
    34    39    40    1
    35     4     5   ar
    36     5     6    1
    37     5     7   ar
    38     7     8   ar
    39     8     9   ar
    40     9    10   ar
    41    17    12   ar
    42    10     1   ar
    43    23    18    1
    44     9     3    1
    45    29    24    1
    46    39    34    1
    47    40    36    1
    48    32    33    1
    49    42    44    1
    50    42    45    1
    51     8    11    1
