@<TRIPOS>MOLECULE
*****
 33 37 0 0 0
SMALL
GASTEIGER

@<TRIPOS>ATOM
      1 C          59.8677   90.9905    5.1820 C.ar    1  UNL1       -0.0024
      2 C          59.1678   92.0531    4.3878 C.ar    1  UNL1       -0.0013
      3 C          59.8824   92.7420    3.2631 C.ar    1  UNL1        0.0181
      4 C          61.2970   92.3680    2.9327 C.ar    1  UNL1        0.1056
      5 C          61.9969   91.3053    3.7270 C.ar    1  UNL1        0.0181
      6 C          61.2823   90.6166    4.8516 C.ar    1  UNL1       -0.0013
      7 S          62.0117   93.0568    1.8081 S.O2    1  UNL1        0.0071
      8 O          63.2799   92.3471    2.1794 O.2     1  UNL1       -0.1687
      9 O          60.7434   93.7665    1.4368 O.2     1  UNL1       -0.1687
     10 C          62.7263   93.7455    0.6835 C.3     1  UNL1        0.1366
     11 C          64.1081   94.2899    0.8945 C.3     1  UNL1        0.0413
     12 C          64.8228   94.9786   -0.2301 C.3     1  UNL1        0.0740
     13 N          64.1557   95.1231   -1.5658 N.3     1  UNL1       -0.2696
     14 C          62.7740   94.5788   -1.7770 C.3     1  UNL1        0.0740
     15 C          62.0593   93.8900   -0.6523 C.3     1  UNL1        0.0413
     16 C          64.8704   95.8118   -2.6905 C.3     1  UNL1        0.1172
     17 C          64.8015   95.7487   -4.1876 C.3     1  UNL1        0.1606
     18 O          65.8811   96.7859   -4.2811 O.3     1  UNL1       -0.3507
     19 C          65.9500   96.8491   -2.7840 C.3     1  UNL1        0.1606
     20 C          59.1530   90.3017    6.3067 C.3     1  UNL1        0.1177
     21 O          59.1333   87.3797    6.9858 O.2     1  UNL1       -0.2526
     22 C          59.9154   88.3408    7.8311 C.2     1  UNL1        0.3047
     23 N          59.9252   89.8018    7.4916 N.am    1  UNL1       -0.2847
     24 N          60.6876   87.8410    9.0159 N.am    1  UNL1       -0.2560
     25 C          60.7717   86.4158    9.4761 C.3     1  UNL1        0.1218
     26 C          61.6474   86.3725   10.6932 C.ar    1  UNL1       -0.0016
     27 C          62.0875   85.2404   11.5733 C.ar    1  UNL1        0.0178
     28 C          62.9849   85.5067   12.7453 C.ar    1  UNL1        0.0986
     29 N          63.4421   86.9052   13.0373 N.ar    1  UNL1       -0.2426
     30 C          63.0020   88.0373   12.1573 C.ar    1  UNL1        0.0960
     31 C          62.1046   87.7710   10.9852 C.ar    1  UNL1        0.0146
     32 C          61.5114   88.6785    9.9486 C.3     1  UNL1        0.1233
     33 H          60.4385   90.4327    8.0464 H       1  UNL1        0.1513
@<TRIPOS>BOND
     1    21    22    2
     2    22    23   am
     3    23    20    1
     4    20     1    1
     5     1     2   ar
     6     2     3   ar
     7     3     4   ar
     8     4     7    1
     9     7     8    2
    10     7     9    2
    11     7    10    1
    12    10    11    1
    13    11    12    1
    14    12    13    1
    15    13    16    1
    16    16    17    1
    17    17    18    1
    18    18    19    1
    19    13    14    1
    20    14    15    1
    21     4     5   ar
    22     5     6   ar
    23    22    24   am
    24    24    25    1
    25    25    26    1
    26    26    27   ar
    27    27    28   ar
    28    28    29   ar
    29    29    30   ar
    30    30    31   ar
    31    31    32    1
    32     6     1   ar
    33    32    24    1
    34    15    10    1
    35    31    26   ar
    36    19    16    1
    37    23    33    1
@<TRIPOS>MOLECULE
*****
 33 37 0 0 0
SMALL
GASTEIGER

@<TRIPOS>ATOM
      1 C          59.6903   89.3123    7.2822 C.ar    1  UNL1       -0.0024
      2 C          59.4675   87.8543    7.0094 C.ar    1  UNL1       -0.0013
      3 C          60.0452   86.8218    7.9316 C.ar    1  UNL1        0.0181
      4 C          60.8456   87.2475    9.1266 C.ar    1  UNL1        0.1056
      5 C          61.0684   88.7056    9.3994 C.ar    1  UNL1        0.0181
      6 C          60.4907   89.7380    8.4772 C.ar    1  UNL1       -0.0013
      7 S          61.4233   86.2152   10.0488 S.O2    1  UNL1        0.0071
      8 O          62.1092   85.5607    8.8865 O.2     1  UNL1       -0.1687
      9 O          60.7373   86.8696   11.2112 O.2     1  UNL1       -0.1687
     10 C          62.0010   85.1828   10.9710 C.3     1  UNL1        0.1366
     11 C          62.5779   83.9161   10.4117 C.3     1  UNL1        0.0413
     12 C          63.1555   82.8838   11.3339 C.3     1  UNL1        0.0740
     13 N          63.1563   83.1180   12.8155 N.3     1  UNL1       -0.2696
     14 C          62.5795   84.3846   13.3749 C.3     1  UNL1        0.0740
     15 C          62.0018   85.4170   12.4526 C.3     1  UNL1        0.0413
     16 C          63.7340   82.0857   13.7377 C.3     1  UNL1        0.1172
     17 C          63.7362   80.5863   13.7831 C.3     1  UNL1        0.1606
     18 O          64.5510   80.6256   15.0419 O.3     1  UNL1       -0.3507
     19 C          64.5488   82.1249   14.9965 C.3     1  UNL1        0.1606
     20 C          59.1126   90.3448    6.3600 C.3     1  UNL1        0.1177
     21 O          57.9330   92.3416    4.4572 O.2     1  UNL1       -0.2526
     22 C          59.3776   91.9557    4.3389 C.2     1  UNL1        0.3047
     23 N          59.9674   90.9572    5.2903 N.am    1  UNL1       -0.2847
     24 N          60.2324   92.5681    3.2693 N.am    1  UNL1       -0.2560
     25 C          59.7846   93.5748    2.2514 C.3     1  UNL1        0.1218
     26 C          60.9606   93.9103    1.3827 C.ar    1  UNL1       -0.0016
     27 C          61.1135   94.8403    0.2159 C.ar    1  UNL1        0.0178
     28 C          62.4411   94.9711   -0.4699 C.ar    1  UNL1        0.0986
     29 N          63.6157   94.1718    0.0111 N.ar    1  UNL1       -0.2426
     30 C          63.4628   93.2418    1.1780 C.ar    1  UNL1        0.0960
     31 C          62.1352   93.1110    1.8638 C.ar    1  UNL1        0.0146
     32 C          61.6852   92.2815    3.0297 C.3     1  UNL1        0.1233
     33 H          60.9156   90.7039    5.2128 H       1  UNL1        0.1513
@<TRIPOS>BOND
     1    21    22    2
     2    22    23   am
     3    23    20    1
     4    20     1    1
     5     1     2   ar
     6     2     3   ar
     7     3     4   ar
     8     4     7    1
     9     7     8    2
    10     7     9    2
    11     7    10    1
    12    10    11    1
    13    11    12    1
    14    12    13    1
    15    13    16    1
    16    16    17    1
    17    17    18    1
    18    18    19    1
    19    13    14    1
    20    14    15    1
    21     4     5   ar
    22     5     6   ar
    23    22    24   am
    24    24    25    1
    25    25    26    1
    26    26    27   ar
    27    27    28   ar
    28    28    29   ar
    29    29    30   ar
    30    30    31   ar
    31    31    32    1
    32     6     1   ar
    33    32    24    1
    34    15    10    1
    35    31    26   ar
    36    19    16    1
    37    23    33    1
@<TRIPOS>MOLECULE
*****
 33 37 0 0 0
SMALL
GASTEIGER

@<TRIPOS>ATOM
      1 C          59.3619   89.8316    6.6016 C.ar    1  UNL1       -0.0024
      2 C          60.7497   89.8660    6.0335 C.ar    1  UNL1       -0.0013
      3 C          61.0439   90.7005    4.8222 C.ar    1  UNL1        0.0181
      4 C          59.9502   91.5007    4.1792 C.ar    1  UNL1        0.1056
      5 C          58.5623   91.4663    4.7473 C.ar    1  UNL1        0.0181
      6 C          58.2682   90.6318    5.9585 C.ar    1  UNL1       -0.0013
      7 S          60.2443   92.3352    2.9679 S.O2    1  UNL1        0.0071
      8 O          61.6882   91.9360    3.0435 O.2     1  UNL1       -0.1687
      9 O          58.8004   92.7343    2.8924 O.2     1  UNL1       -0.1687
     10 C          60.5384   93.1697    1.7567 C.3     1  UNL1        0.1366
     11 C          59.6487   93.0829    0.5521 C.3     1  UNL1        0.0413
     12 C          59.9428   93.9174   -0.6591 C.3     1  UNL1        0.0740
     13 N          61.1265   94.8387   -0.6658 N.3     1  UNL1       -0.2696
     14 C          62.0161   94.9255    0.5388 C.3     1  UNL1        0.0740
     15 C          61.7221   94.0910    1.7501 C.3     1  UNL1        0.0413
     16 C          61.4206   95.6732   -1.8770 C.3     1  UNL1        0.1172
     17 C          60.6252   96.1471   -3.0571 C.3     1  UNL1        0.1606
     18 O          61.8365   96.8534   -3.5900 O.3     1  UNL1       -0.3507
     19 C          62.6319   96.3795   -2.4098 C.3     1  UNL1        0.1606
     20 C          59.0678   88.9971    7.8129 C.3     1  UNL1        0.1177
     21 O          59.6252   88.5536   10.7270 O.2     1  UNL1       -0.2526
     22 C          60.3082   87.7056    9.6953 C.2     1  UNL1        0.3047
     23 N          60.0294   87.9274    8.2382 N.am    1  UNL1       -0.2847
     24 N          61.2699   86.6359   10.1206 N.am    1  UNL1       -0.2560
     25 C          61.6463   86.2996   11.5331 C.3     1  UNL1        0.1218
     26 C          62.6331   85.1705   11.4936 C.ar    1  UNL1       -0.0016
     27 C          63.3492   84.4249   12.5804 C.ar    1  UNL1        0.0178
     28 C          64.2987   83.3178   12.2302 C.ar    1  UNL1        0.0986
     29 N          64.5321   82.9563   10.7933 N.ar    1  UNL1       -0.2426
     30 C          63.8159   83.7019    9.7065 C.ar    1  UNL1        0.0960
     31 C          62.8664   84.8090   10.0566 C.ar    1  UNL1        0.0146
     32 C          62.0239   85.7146    9.2081 C.3     1  UNL1        0.1233
     33 H          60.4777   87.3709    7.5610 H       1  UNL1        0.1513
@<TRIPOS>BOND
     1    21    22    2
     2    22    23   am
     3    23    20    1
     4    20     1    1
     5     1     2   ar
     6     2     3   ar
     7     3     4   ar
     8     4     7    1
     9     7     8    2
    10     7     9    2
    11     7    10    1
    12    10    11    1
    13    11    12    1
    14    12    13    1
    15    13    16    1
    16    16    17    1
    17    17    18    1
    18    18    19    1
    19    13    14    1
    20    14    15    1
    21     4     5   ar
    22     5     6   ar
    23    22    24   am
    24    24    25    1
    25    25    26    1
    26    26    27   ar
    27    27    28   ar
    28    28    29   ar
    29    29    30   ar
    30    30    31   ar
    31    31    32    1
    32     6     1   ar
    33    32    24    1
    34    15    10    1
    35    31    26   ar
    36    19    16    1
    37    23    33    1
@<TRIPOS>MOLECULE
*****
 33 37 0 0 0
SMALL
GASTEIGER

@<TRIPOS>ATOM
      1 C          63.9420   89.5130   13.9599 C.ar    1  UNL1       -0.0024
      2 C          63.2998   89.1828   12.6452 C.ar    1  UNL1       -0.0013
      3 C          63.1371   87.7510   12.2285 C.ar    1  UNL1        0.0181
      4 C          63.6167   86.6494   13.1266 C.ar    1  UNL1        0.1056
      5 C          64.2589   86.9796   14.4414 C.ar    1  UNL1        0.0181
      6 C          64.4216   88.4114   14.8580 C.ar    1  UNL1       -0.0013
      7 S          63.4540   85.2177   12.7100 S.O2    1  UNL1        0.0071
      8 O          62.6293   85.6532   11.5352 O.2     1  UNL1       -0.1687
      9 O          64.2787   84.7821   13.8848 O.2     1  UNL1       -0.1687
     10 C          63.2914   83.7859   12.2934 C.3     1  UNL1        0.1366
     11 C          63.8264   83.3244   10.9702 C.3     1  UNL1        0.0413
     12 C          63.6637   81.8927   10.5535 C.3     1  UNL1        0.0740
     13 N          62.9661   80.9224   11.4601 N.3     1  UNL1       -0.2696
     14 C          62.4311   81.3838   12.7832 C.3     1  UNL1        0.0740
     15 C          62.5937   82.8156   13.1999 C.3     1  UNL1        0.0413
     16 C          62.8034   79.4906   11.0435 C.3     1  UNL1        0.1172
     17 C          62.5388   78.2005   11.7615 C.3     1  UNL1        0.1606
     18 O          62.5733   77.4657   10.4543 O.3     1  UNL1       -0.3507
     19 C          62.8380   78.7558    9.7362 C.3     1  UNL1        0.1606
     20 C          64.1047   90.9448   14.3766 C.3     1  UNL1        0.1177
     21 O          66.8096   91.1297   13.0926 O.2     1  UNL1       -0.2526
     22 C          65.7272   92.0924   12.7032 C.2     1  UNL1        0.3047
     23 N          64.3748   91.9999   13.3453 N.am    1  UNL1       -0.2847
     24 N          65.9973   93.1476   11.6719 N.am    1  UNL1       -0.2560
     25 C          67.2934   93.3613   10.9476 C.3     1  UNL1        0.1218
     26 C          67.1158   94.5201   10.0119 C.ar    1  UNL1       -0.0016
     27 C          68.0526   95.1827    9.0458 C.ar    1  UNL1        0.0178
     28 C          67.5836   96.3477    8.2256 C.ar    1  UNL1        0.0986
     29 N          66.1778   96.8501    8.3715 N.ar    1  UNL1       -0.2426
     30 C          65.2410   96.1876    9.3376 C.ar    1  UNL1        0.0960
     31 C          65.7101   95.0226   10.1578 C.ar    1  UNL1        0.0146
     32 C          65.0188   94.1743   11.1837 C.3     1  UNL1        0.1233
     33 H          63.6644   92.6318   13.0898 H       1  UNL1        0.1513
@<TRIPOS>BOND
     1    21    22    2
     2    22    23   am
     3    23    20    1
     4    20     1    1
     5     1     2   ar
     6     2     3   ar
     7     3     4   ar
     8     4     7    1
     9     7     8    2
    10     7     9    2
    11     7    10    1
    12    10    11    1
    13    11    12    1
    14    12    13    1
    15    13    16    1
    16    16    17    1
    17    17    18    1
    18    18    19    1
    19    13    14    1
    20    14    15    1
    21     4     5   ar
    22     5     6   ar
    23    22    24   am
    24    24    25    1
    25    25    26    1
    26    26    27   ar
    27    27    28   ar
    28    28    29   ar
    29    29    30   ar
    30    30    31   ar
    31    31    32    1
    32     6     1   ar
    33    32    24    1
    34    15    10    1
    35    31    26   ar
    36    19    16    1
    37    23    33    1
