@<TRIPOS>MOLECULE
*****
 33 37 0 0 0
SMALL
GASTEIGER

@<TRIPOS>ATOM
      1 C          64.3632   89.1729   14.8068 C.ar    1  UNL1        0.0670
      2 C          64.6104   87.9405   13.9882 C.ar    1  UNL1        0.0191
      3 C          64.1453   86.6041   14.4857 C.ar    1  UNL1        0.0203
      4 C          63.4330   86.5000   15.8017 C.ar    1  UNL1        0.0795
      5 C          63.1858   87.7324   16.6202 C.ar    1  UNL1        0.0396
      6 C          62.4630   87.3222   17.8689 C.ar    1  UNL1        0.1216
      7 N          62.2634   85.8363   17.8221 N.ar    1  UNL1       -0.1677
      8 N          62.8629   85.3281   16.5445 N.ar    1  UNL1       -0.2494
      9 C          63.6509   89.0689   16.1227 C.ar    1  UNL1        0.0207
     10 O          63.2085   90.3202   12.2868 O.2     1  UNL1       -0.2665
     11 C          64.2509   91.0832   13.0493 C.ar    1  UNL1        0.2679
     12 C          64.7159   92.4196   12.5519 C.ar    1  UNL1        0.0980
     13 C          65.7584   93.1825   13.3144 C.ar    1  UNL1        0.1453
     14 C          66.3357   92.6089   14.5744 C.ar    1  UNL1        0.0561
     15 C          65.8706   91.2723   15.0718 C.ar    1  UNL1        0.0860
     16 N          64.8283   90.5095   14.3093 N.ar    1  UNL1       -0.2729
     17 O          66.2234   94.5190   12.8169 O.3     1  UNL1       -0.4704
     18 C          66.1671   94.8349   11.3517 C.3     1  UNL1        0.2320
     19 C          66.9972   94.0470   10.3821 C.ar    1  UNL1        0.0212
     20 C          67.4391   94.6720    9.0922 C.ar    1  UNL1       -0.0007
     21 C          68.2692   93.8841    8.1227 C.ar    1  UNL1       -0.0002
     22 C          68.6574   92.4710    8.4431 C.ar    1  UNL1       -0.0000
     23 C          68.2154   91.8459    9.7330 C.ar    1  UNL1       -0.0002
     24 C          67.3854   92.6339   10.7025 C.ar    1  UNL1       -0.0007
     25 C          62.8880   83.8990   16.0895 C.3     1  UNL1        0.1447
     26 C          61.9962   83.4529   14.9690 C.3     1  UNL1        0.0988
     27 N          62.5912   82.8458   13.7331 N.3     1  UNL1       -0.2689
     28 C          62.1744   81.5526   13.0976 C.3     1  UNL1        0.0748
     29 C          63.0331   81.3329   11.8875 C.3     1  UNL1        0.0480
     30 C          63.9805   82.4904   11.7751 C.3     1  UNL1        0.1278
     31 O          65.0188   82.6796   10.7091 O.3     1  UNL1       -0.3830
     32 C          63.7074   83.4254   12.9157 C.3     1  UNL1        0.1017
     33 H          65.4967   83.5089   10.8668 H       1  UNL1        0.2104
@<TRIPOS>BOND
     1    10    11    2
     2    11    12   ar
     3    12    13   ar
     4    13    17    1
     5    17    18    1
     6    18    19    1
     7    19    20   ar
     8    20    21   ar
     9    21    22   ar
    10    22    23   ar
    11    23    24   ar
    12    13    14   ar
    13    14    15   ar
    14    15    16   ar
    15    16     1    1
    16     1     2   ar
    17     2     3   ar
    18     3     4   ar
    19     4     5   ar
    20     5     6   ar
    21     6     7   ar
    22     7     8   ar
    23     8    25    1
    24    25    26    1
    25    26    27    1
    26    27    28    1
    27    28    29    1
    28    29    30    1
    29    30    31    1
    30    30    32    1
    31     5     9   ar
    32    16    11   ar
    33     9     1   ar
    34    24    19   ar
    35     8     4   ar
    36    32    27    1
    37    31    33    1
@<TRIPOS>MOLECULE
*****
 33 37 0 0 0
SMALL
GASTEIGER

@<TRIPOS>ATOM
      1 C          61.6836   87.3036   10.6489 C.ar    1  UNL1        0.0670
      2 C          61.6707   85.8294   10.9253 C.ar    1  UNL1        0.0191
      3 C          62.4302   85.2792   12.0959 C.ar    1  UNL1        0.0203
      4 C          63.2026   86.2032   12.9901 C.ar    1  UNL1        0.0795
      5 C          63.2155   87.6774   12.7137 C.ar    1  UNL1        0.0396
      6 C          64.0606   88.3382   13.7621 C.ar    1  UNL1        0.1216
      7 N          64.5701   87.2723   14.6865 N.ar    1  UNL1       -0.1677
      8 N          64.0398   85.9528   14.2094 N.ar    1  UNL1       -0.2494
      9 C          62.4560   88.2276   11.5431 C.ar    1  UNL1        0.0207
     10 O          61.6121   90.2634   10.1646 O.2     1  UNL1       -0.2665
     11 C          60.8883   89.3338    9.2361 C.ar    1  UNL1        0.2679
     12 C          60.1289   89.8841    8.0655 C.ar    1  UNL1        0.0980
     13 C          59.4050   88.9545    7.1370 C.ar    1  UNL1        0.1453
     14 C          59.4408   87.4746    7.3792 C.ar    1  UNL1        0.0561
     15 C          60.2003   86.9243    8.5498 C.ar    1  UNL1        0.0860
     16 N          60.9241   87.8539    9.4782 N.ar    1  UNL1       -0.2729
     17 O          58.6456   89.5048    5.9664 O.3     1  UNL1       -0.4704
     18 C          58.7037   90.9714    5.6572 C.3     1  UNL1        0.2320
     19 C          59.7003   91.4893    4.6628 C.ar    1  UNL1        0.0212
     20 C          61.1001   90.9503    4.6535 C.ar    1  UNL1       -0.0007
     21 C          62.0965   91.4682    3.6592 C.ar    1  UNL1       -0.0002
     22 C          61.6933   92.5251    2.6741 C.ar    1  UNL1       -0.0000
     23 C          60.2935   93.0640    2.6833 C.ar    1  UNL1       -0.0002
     24 C          59.2970   92.5461    3.6777 C.ar    1  UNL1       -0.0007
     25 C          64.3008   84.6174   14.8406 C.3     1  UNL1        0.1447
     26 C          64.5845   83.4230   13.9787 C.3     1  UNL1        0.0988
     27 N          63.5474   82.3515   13.8169 N.3     1  UNL1       -0.2689
     28 C          63.7002   81.0896   13.0205 C.3     1  UNL1        0.0748
     29 C          62.4226   80.3119   13.1346 C.3     1  UNL1        0.0480
     30 C          61.4802   81.0932   14.0015 C.3     1  UNL1        0.1278
     31 O          60.0872   80.6856   14.3802 O.3     1  UNL1       -0.3830
     32 C          62.1754   82.3537   14.4232 C.3     1  UNL1        0.1017
     33 H          59.6938   81.3671   14.9474 H       1  UNL1        0.2104
@<TRIPOS>BOND
     1    10    11    2
     2    11    12   ar
     3    12    13   ar
     4    13    17    1
     5    17    18    1
     6    18    19    1
     7    19    20   ar
     8    20    21   ar
     9    21    22   ar
    10    22    23   ar
    11    23    24   ar
    12    13    14   ar
    13    14    15   ar
    14    15    16   ar
    15    16     1    1
    16     1     2   ar
    17     2     3   ar
    18     3     4   ar
    19     4     5   ar
    20     5     6   ar
    21     6     7   ar
    22     7     8   ar
    23     8    25    1
    24    25    26    1
    25    26    27    1
    26    27    28    1
    27    28    29    1
    28    29    30    1
    29    30    31    1
    30    30    32    1
    31     5     9   ar
    32    16    11   ar
    33     9     1   ar
    34    24    19   ar
    35     8     4   ar
    36    32    27    1
    37    31    33    1
@<TRIPOS>MOLECULE
*****
 33 37 0 0 0
SMALL
GASTEIGER

@<TRIPOS>ATOM
      1 C          61.6886   87.4450   10.6005 C.ar    1  UNL1        0.0670
      2 C          61.6651   85.9703   10.8739 C.ar    1  UNL1        0.0191
      3 C          62.4201   85.4123   12.0437 C.ar    1  UNL1        0.0203
      4 C          63.1986   86.3290   12.9402 C.ar    1  UNL1        0.0795
      5 C          63.2221   87.8036   12.6668 C.ar    1  UNL1        0.0396
      6 C          64.0715   88.4562   13.7169 C.ar    1  UNL1        0.1216
      7 N          64.5729   87.3849   14.6393 N.ar    1  UNL1       -0.1677
      8 N          64.0335   86.0701   14.1593 N.ar    1  UNL1       -0.2494
      9 C          62.4671   88.3616   11.4970 C.ar    1  UNL1        0.0207
     10 O          60.5535   85.5966    8.5281 O.2     1  UNL1       -0.2665
     11 C          60.3660   87.0788    8.3944 C.ar    1  UNL1        0.2679
     12 C          59.6110   87.6368    7.2246 C.ar    1  UNL1        0.0980
     13 C          59.4234   89.1191    7.0910 C.ar    1  UNL1        0.1453
     14 C          59.9909   90.0433    8.1272 C.ar    1  UNL1        0.0561
     15 C          60.7460   89.4852    9.2971 C.ar    1  UNL1        0.0860
     16 N          60.9335   88.0030    9.4307 N.ar    1  UNL1       -0.2729
     17 O          58.6684   89.6771    5.9211 O.3     1  UNL1       -0.4704
     18 C          58.7782   91.1345    5.5838 C.3     1  UNL1        0.2320
     19 C          59.7941   91.5981    4.5823 C.ar    1  UNL1        0.0212
     20 C          59.4195   92.6233    3.5535 C.ar    1  UNL1       -0.0007
     21 C          60.4354   93.0869    2.5520 C.ar    1  UNL1       -0.0002
     22 C          61.8260   92.5252    2.5794 C.ar    1  UNL1       -0.0000
     23 C          62.2007   91.5000    3.6082 C.ar    1  UNL1       -0.0002
     24 C          61.1848   91.0364    4.6097 C.ar    1  UNL1       -0.0007
     25 C          64.2847   84.7316   14.7879 C.3     1  UNL1        0.1447
     26 C          64.5833   83.5418   13.9247 C.3     1  UNL1        0.0988
     27 N          63.5591   82.4585   13.7602 N.3     1  UNL1       -0.2689
     28 C          63.7096   81.2223   12.9240 C.3     1  UNL1        0.0748
     29 C          62.4479   80.4209   13.0501 C.3     1  UNL1        0.0480
     30 C          61.5176   81.1617   13.9643 C.3     1  UNL1        0.1278
     31 O          60.1420   80.7208   14.3686 O.3     1  UNL1       -0.3830
     32 C          62.2044   82.4210   14.4031 C.3     1  UNL1        0.1017
     33 H          59.7538   81.3794   14.9656 H       1  UNL1        0.2104
@<TRIPOS>BOND
     1    10    11    2
     2    11    12   ar
     3    12    13   ar
     4    13    17    1
     5    17    18    1
     6    18    19    1
     7    19    20   ar
     8    20    21   ar
     9    21    22   ar
    10    22    23   ar
    11    23    24   ar
    12    13    14   ar
    13    14    15   ar
    14    15    16   ar
    15    16     1    1
    16     1     2   ar
    17     2     3   ar
    18     3     4   ar
    19     4     5   ar
    20     5     6   ar
    21     6     7   ar
    22     7     8   ar
    23     8    25    1
    24    25    26    1
    25    26    27    1
    26    27    28    1
    27    28    29    1
    28    29    30    1
    29    30    31    1
    30    30    32    1
    31     5     9   ar
    32    16    11   ar
    33     9     1   ar
    34    24    19   ar
    35     8     4   ar
    36    32    27    1
    37    31    33    1
@<TRIPOS>MOLECULE
*****
 33 37 0 0 0
SMALL
GASTEIGER

@<TRIPOS>ATOM
      1 C          64.8277   89.6958   14.4839 C.ar    1  UNL1        0.0670
      2 C          64.1357   90.4408   13.3812 C.ar    1  UNL1        0.0191
      3 C          64.6233   91.7992   12.9727 C.ar    1  UNL1        0.0203
      4 C          65.8030   92.4126   13.6671 C.ar    1  UNL1        0.0795
      5 C          66.4950   91.6677   14.7698 C.ar    1  UNL1        0.0396
      6 C          67.6243   92.5202   15.2675 C.ar    1  UNL1        0.1216
      7 N          67.6303   93.7921   14.4724 N.ar    1  UNL1       -0.1677
      8 N          66.5047   93.7256   13.4832 N.ar    1  UNL1       -0.2494
      9 C          66.0073   90.3093   15.1783 C.ar    1  UNL1        0.0207
     10 O          63.2463   89.3674   17.0121 O.2     1  UNL1       -0.2665
     11 C          63.5493   88.1731   16.1565 C.ar    1  UNL1        0.2679
     12 C          63.0617   86.8147   16.5650 C.ar    1  UNL1        0.0980
     13 C          63.3647   85.6205   15.7094 C.ar    1  UNL1        0.1453
     14 C          64.1554   85.7846   14.4454 C.ar    1  UNL1        0.0561
     15 C          64.6430   87.1431   14.0369 C.ar    1  UNL1        0.0860
     16 N          64.3400   88.3373   14.8924 N.ar    1  UNL1       -0.2729
     17 O          62.8770   84.2621   16.1179 O.3     1  UNL1       -0.4704
     18 C          61.8055   83.5790   15.3211 C.3     1  UNL1        0.2320
     19 C          62.1773   82.6888   14.1724 C.ar    1  UNL1        0.0212
     20 C          62.7353   83.2829   12.9132 C.ar    1  UNL1       -0.0007
     21 C          63.1071   82.3928   11.7646 C.ar    1  UNL1       -0.0002
     22 C          62.9208   80.9085   11.8751 C.ar    1  UNL1       -0.0000
     23 C          62.3628   80.3144   13.1343 C.ar    1  UNL1       -0.0002
     24 C          61.9910   81.2045   14.2829 C.ar    1  UNL1       -0.0007
     25 C          66.1440   94.7859   12.4854 C.3     1  UNL1        0.1447
     26 C          65.6719   94.3974   11.1157 C.3     1  UNL1        0.0988
     27 N          66.6686   94.0720   10.0430 N.3     1  UNL1       -0.2689
     28 C          67.0861   94.9783    8.9231 C.3     1  UNL1        0.0748
     29 C          68.0983   94.2496    8.0899 C.3     1  UNL1        0.0480
     30 C          68.3065   92.8929    8.6949 C.3     1  UNL1        0.1278
     31 O          69.2353   91.8321    8.1828 O.3     1  UNL1       -0.3830
     32 C          67.4229   92.7832    9.9020 C.3     1  UNL1        0.1017
     33 H          69.1810   91.0509    8.7552 H       1  UNL1        0.2104
@<TRIPOS>BOND
     1    10    11    2
     2    11    12   ar
     3    12    13   ar
     4    13    17    1
     5    17    18    1
     6    18    19    1
     7    19    20   ar
     8    20    21   ar
     9    21    22   ar
    10    22    23   ar
    11    23    24   ar
    12    13    14   ar
    13    14    15   ar
    14    15    16   ar
    15    16     1    1
    16     1     2   ar
    17     2     3   ar
    18     3     4   ar
    19     4     5   ar
    20     5     6   ar
    21     6     7   ar
    22     7     8   ar
    23     8    25    1
    24    25    26    1
    25    26    27    1
    26    27    28    1
    27    28    29    1
    28    29    30    1
    29    30    31    1
    30    30    32    1
    31     5     9   ar
    32    16    11   ar
    33     9     1   ar
    34    24    19   ar
    35     8     4   ar
    36    32    27    1
    37    31    33    1
@<TRIPOS>MOLECULE
*****
 33 37 0 0 0
SMALL
GASTEIGER

@<TRIPOS>ATOM
      1 C          62.9230   90.2721   11.5939 C.ar    1  UNL1        0.0670
      2 C          63.7059   91.2737   10.7977 C.ar    1  UNL1        0.0191
      3 C          64.7154   92.1493   11.4790 C.ar    1  UNL1        0.0203
      4 C          64.9420   92.0234   12.9564 C.ar    1  UNL1        0.0795
      5 C          64.1591   91.0218   13.7526 C.ar    1  UNL1        0.0396
      6 C          64.5959   91.1240   15.1839 C.ar    1  UNL1        0.1216
      7 N          65.6488   92.1887   15.2724 N.ar    1  UNL1       -0.1677
      8 N          65.8627   92.7446   13.8957 N.ar    1  UNL1       -0.2494
      9 C          63.1496   90.1462   13.0713 C.ar    1  UNL1        0.0207
     10 O          62.7248   87.3676   12.3183 O.2     1  UNL1       -0.2665
     11 C          61.8144   87.9442   11.2748 C.ar    1  UNL1        0.2679
     12 C          60.8049   87.0685   10.5936 C.ar    1  UNL1        0.0980
     13 C          59.8945   87.6450    9.5501 C.ar    1  UNL1        0.1453
     14 C          59.9936   89.0973    9.1879 C.ar    1  UNL1        0.0561
     15 C          61.0031   89.9730    9.8692 C.ar    1  UNL1        0.0860
     16 N          61.9135   89.3964   10.9126 N.ar    1  UNL1       -0.2729
     17 O          58.8850   86.7693    8.8689 O.3     1  UNL1       -0.4704
     18 C          59.1679   86.2227    7.5011 C.3     1  UNL1        0.2320
     19 C          60.4927   85.5830    7.2082 C.ar    1  UNL1        0.0212
     20 C          60.6574   84.7230    5.9904 C.ar    1  UNL1       -0.0007
     21 C          61.9822   84.0833    5.6976 C.ar    1  UNL1       -0.0002
     22 C          63.1423   84.3037    6.6227 C.ar    1  UNL1       -0.0000
     23 C          62.9775   85.1637    7.8405 C.ar    1  UNL1       -0.0002
     24 C          61.6527   85.8034    8.1333 C.ar    1  UNL1       -0.0007
     25 C          66.8278   93.8309   13.5237 C.3     1  UNL1        0.1447
     26 C          66.5094   94.7614   12.3911 C.3     1  UNL1        0.0988
     27 N          67.0253   94.4699   11.0132 N.3     1  UNL1       -0.2689
     28 C          67.0192   95.4177    9.8506 C.3     1  UNL1        0.0748
     29 C          67.6281   94.7129    8.6748 C.3     1  UNL1        0.0480
     30 C          68.0104   93.3295    9.1106 C.3     1  UNL1        0.1278
     31 O          68.6526   92.2804    8.2520 O.3     1  UNL1       -0.3830
     32 C          67.6379   93.1793   10.5558 C.3     1  UNL1        0.1017
     33 H          68.7947   91.4765    8.7758 H       1  UNL1        0.2104
@<TRIPOS>BOND
     1    10    11    2
     2    11    12   ar
     3    12    13   ar
     4    13    17    1
     5    17    18    1
     6    18    19    1
     7    19    20   ar
     8    20    21   ar
     9    21    22   ar
    10    22    23   ar
    11    23    24   ar
    12    13    14   ar
    13    14    15   ar
    14    15    16   ar
    15    16     1    1
    16     1     2   ar
    17     2     3   ar
    18     3     4   ar
    19     4     5   ar
    20     5     6   ar
    21     6     7   ar
    22     7     8   ar
    23     8    25    1
    24    25    26    1
    25    26    27    1
    26    27    28    1
    27    28    29    1
    28    29    30    1
    29    30    31    1
    30    30    32    1
    31     5     9   ar
    32    16    11   ar
    33     9     1   ar
    34    24    19   ar
    35     8     4   ar
    36    32    27    1
    37    31    33    1
@<TRIPOS>MOLECULE
*****
 33 37 0 0 0
SMALL
GASTEIGER

@<TRIPOS>ATOM
      1 C          61.7441   93.1000    1.6018 C.ar    1  UNL1        0.0670
      2 C          61.1686   92.9200    0.2284 C.ar    1  UNL1        0.0191
      3 C          61.8512   93.5349   -0.9573 C.ar    1  UNL1        0.0203
      4 C          63.1094   94.3297   -0.7696 C.ar    1  UNL1        0.0795
      5 C          63.6849   94.5097    0.6038 C.ar    1  UNL1        0.0396
      6 C          64.9284   95.3394    0.4802 C.ar    1  UNL1        0.1216
      7 N          65.1214   95.6722   -0.9696 N.ar    1  UNL1       -0.1677
      8 N          63.9972   95.0482   -1.7421 N.ar    1  UNL1       -0.2494
      9 C          63.0023   93.8948    1.7895 C.ar    1  UNL1        0.0207
     10 O          63.2607   91.2517    3.4139 O.2     1  UNL1       -0.2665
     11 C          61.8198   91.5609    3.6936 C.ar    1  UNL1        0.2679
     12 C          61.1373   90.9460    4.8794 C.ar    1  UNL1        0.0980
     13 C          59.6963   91.2552    5.1591 C.ar    1  UNL1        0.1453
     14 C          58.9380   92.1794    4.2530 C.ar    1  UNL1        0.0561
     15 C          59.6206   92.7943    3.0672 C.ar    1  UNL1        0.0860
     16 N          61.0615   92.4850    2.7876 N.ar    1  UNL1       -0.2729
     17 O          59.0138   90.6403    6.3448 O.3     1  UNL1       -0.4704
     18 C          58.9586   89.1482    6.4880 C.3     1  UNL1        0.2320
     19 C          59.6448   88.4797    7.6422 C.ar    1  UNL1        0.0212
     20 C          59.7255   86.9831    7.7021 C.ar    1  UNL1       -0.0007
     21 C          60.4116   86.3146    8.8563 C.ar    1  UNL1       -0.0002
     22 C          61.0171   87.1427    9.9507 C.ar    1  UNL1       -0.0000
     23 C          60.9364   88.6393    9.8908 C.ar    1  UNL1       -0.0002
     24 C          60.2503   89.3078    8.7366 C.ar    1  UNL1       -0.0007
     25 C          63.7960   95.1286   -3.2263 C.3     1  UNL1        0.1447
     26 C          64.9468   94.8734   -4.1540 C.3     1  UNL1        0.0988
     27 N          64.7860   93.9259   -5.3057 N.3     1  UNL1       -0.2689
     28 C          64.0935   94.2239   -6.6025 C.3     1  UNL1        0.0748
     29 C          64.1690   92.9962   -7.4610 C.3     1  UNL1        0.0480
     30 C          64.9080   91.9395   -6.6948 C.3     1  UNL1        0.1278
     31 O          65.2124   90.5517   -7.1761 O.3     1  UNL1       -0.3830
     32 C          65.2894   92.5141   -5.3627 C.3     1  UNL1        0.1017
     33 H          65.7002   90.0710   -6.4892 H       1  UNL1        0.2104
@<TRIPOS>BOND
     1    10    11    2
     2    11    12   ar
     3    12    13   ar
     4    13    17    1
     5    17    18    1
     6    18    19    1
     7    19    20   ar
     8    20    21   ar
     9    21    22   ar
    10    22    23   ar
    11    23    24   ar
    12    13    14   ar
    13    14    15   ar
    14    15    16   ar
    15    16     1    1
    16     1     2   ar
    17     2     3   ar
    18     3     4   ar
    19     4     5   ar
    20     5     6   ar
    21     6     7   ar
    22     7     8   ar
    23     8    25    1
    24    25    26    1
    25    26    27    1
    26    27    28    1
    27    28    29    1
    28    29    30    1
    29    30    31    1
    30    30    32    1
    31     5     9   ar
    32    16    11   ar
    33     9     1   ar
    34    24    19   ar
    35     8     4   ar
    36    32    27    1
    37    31    33    1
@<TRIPOS>MOLECULE
*****
 33 37 0 0 0
SMALL
GASTEIGER

@<TRIPOS>ATOM
      1 C          62.0793   93.1513    1.4686 C.ar    1  UNL1        0.0670
      2 C          61.7001   92.7886    0.0635 C.ar    1  UNL1        0.0191
      3 C          62.4654   93.3626   -1.0918 C.ar    1  UNL1        0.0203
      4 C          63.6100   94.2993   -0.8419 C.ar    1  UNL1        0.0795
      5 C          63.9892   94.6621    0.5632 C.ar    1  UNL1        0.0396
      6 C          65.1551   95.6037    0.5003 C.ar    1  UNL1        0.1216
      7 N          65.4965   95.8230   -0.9438 N.ar    1  UNL1       -0.1677
      8 N          64.5415   95.0168   -1.7734 N.ar    1  UNL1       -0.2494
      9 C          63.2239   94.0881    1.7185 C.ar    1  UNL1        0.0207
     10 O          63.4359   91.2879    3.3889 O.2     1  UNL1       -0.2665
     11 C          61.9922   91.6456    3.5842 C.ar    1  UNL1        0.2679
     12 C          61.2270   91.0716    4.7395 C.ar    1  UNL1        0.0980
     13 C          59.7833   91.4293    4.9347 C.ar    1  UNL1        0.1453
     14 C          59.1050   92.3610    3.9746 C.ar    1  UNL1        0.0561
     15 C          59.8704   92.9350    2.8192 C.ar    1  UNL1        0.0860
     16 N          61.3139   92.5773    2.6240 N.ar    1  UNL1       -0.2729
     17 O          59.0180   90.8553    6.0900 O.3     1  UNL1       -0.4704
     18 C          58.8884   89.3684    6.2391 C.3     1  UNL1        0.2320
     19 C          59.4956   88.6775    7.4240 C.ar    1  UNL1        0.0212
     20 C          59.4408   87.1823    7.5299 C.ar    1  UNL1       -0.0007
     21 C          60.0480   86.4916    8.7148 C.ar    1  UNL1       -0.0002
     22 C          60.7101   87.2961    9.7939 C.ar    1  UNL1       -0.0000
     23 C          60.7649   88.7913    9.6881 C.ar    1  UNL1       -0.0002
     24 C          60.1577   89.4820    8.5031 C.ar    1  UNL1       -0.0007
     25 C          64.5216   94.9413   -3.2713 C.3     1  UNL1        0.1447
     26 C          63.5354   95.7600   -4.0505 C.3     1  UNL1        0.0988
     27 N          62.0637   95.5706   -3.8307 N.3     1  UNL1       -0.2689
     28 C          61.2009   96.3708   -2.9006 C.3     1  UNL1        0.0748
     29 C          59.8005   95.8424   -2.9976 C.3     1  UNL1        0.0480
     30 C          59.7977   94.7156   -3.9876 C.3     1  UNL1        0.1278
     31 O          58.6055   93.8999   -4.3919 O.3     1  UNL1       -0.3830
     32 C          61.1965   94.5476   -4.5026 C.3     1  UNL1        0.1017
     33 H          58.8746   93.2362   -5.0461 H       1  UNL1        0.2104
@<TRIPOS>BOND
     1    10    11    2
     2    11    12   ar
     3    12    13   ar
     4    13    17    1
     5    17    18    1
     6    18    19    1
     7    19    20   ar
     8    20    21   ar
     9    21    22   ar
    10    22    23   ar
    11    23    24   ar
    12    13    14   ar
    13    14    15   ar
    14    15    16   ar
    15    16     1    1
    16     1     2   ar
    17     2     3   ar
    18     3     4   ar
    19     4     5   ar
    20     5     6   ar
    21     6     7   ar
    22     7     8   ar
    23     8    25    1
    24    25    26    1
    25    26    27    1
    26    27    28    1
    27    28    29    1
    28    29    30    1
    29    30    31    1
    30    30    32    1
    31     5     9   ar
    32    16    11   ar
    33     9     1   ar
    34    24    19   ar
    35     8     4   ar
    36    32    27    1
    37    31    33    1
@<TRIPOS>MOLECULE
*****
 33 37 0 0 0
SMALL
GASTEIGER

@<TRIPOS>ATOM
      1 C          64.0109   88.2926   13.7200 C.ar    1  UNL1        0.0670
      2 C          64.9103   89.0878   14.6193 C.ar    1  UNL1        0.0191
      3 C          65.2895   90.4912   14.2499 C.ar    1  UNL1        0.0203
      4 C          64.7692   91.0995   12.9813 C.ar    1  UNL1        0.0795
      5 C          63.8698   90.3043   12.0821 C.ar    1  UNL1        0.0396
      6 C          63.5144   91.1633   10.9048 C.ar    1  UNL1        0.1216
      7 N          64.1942   92.4894   11.0765 N.ar    1  UNL1       -0.1677
      8 N          64.9697   92.4500   12.3599 N.ar    1  UNL1       -0.2494
      9 C          63.4906   88.9009   12.4514 C.ar    1  UNL1        0.0207
     10 O          62.3280   86.6533   11.8544 O.2     1  UNL1       -0.2665
     11 C          62.7903   86.0694   13.1565 C.ar    1  UNL1        0.2679
     12 C          62.4110   84.6659   13.5258 C.ar    1  UNL1        0.0980
     13 C          62.8733   84.0820   14.8279 C.ar    1  UNL1        0.1453
     14 C          63.7147   84.9017   15.7607 C.ar    1  UNL1        0.0561
     15 C          64.0939   86.3052   15.3914 C.ar    1  UNL1        0.0860
     16 N          63.6317   86.8890   14.0893 N.ar    1  UNL1       -0.2729
     17 O          62.4941   82.6785   15.1972 O.3     1  UNL1       -0.4704
     18 C          63.0468   81.5225   14.4174 C.3     1  UNL1        0.2320
     19 C          63.3854   81.6904   12.9658 C.ar    1  UNL1        0.0212
     20 C          62.6731   80.8719   11.9300 C.ar    1  UNL1       -0.0007
     21 C          63.0117   81.0398   10.4784 C.ar    1  UNL1       -0.0002
     22 C          64.0625   82.0262   10.0626 C.ar    1  UNL1       -0.0000
     23 C          64.7748   82.8446   11.0984 C.ar    1  UNL1       -0.0002
     24 C          64.4362   82.6767   12.5499 C.ar    1  UNL1       -0.0007
     25 C          65.8000   93.5652   12.9229 C.3     1  UNL1        0.1447
     26 C          66.2447   94.6905   12.0364 C.3     1  UNL1        0.0988
     27 N          66.9221   94.3943   10.7312 N.3     1  UNL1       -0.2689
     28 C          67.0859   95.3494    9.5862 C.3     1  UNL1        0.0748
     29 C          67.8197   94.6364    8.4894 C.3     1  UNL1        0.0480
     30 C          68.1093   93.2407    8.9564 C.3     1  UNL1        0.1278
     31 O          68.8276   92.1806    8.1750 O.3     1  UNL1       -0.3830
     32 C          67.5546   93.0911   10.3420 C.3     1  UNL1        0.1017
     33 H          68.8825   91.3699    8.7047 H       1  UNL1        0.2104
@<TRIPOS>BOND
     1    10    11    2
     2    11    12   ar
     3    12    13   ar
     4    13    17    1
     5    17    18    1
     6    18    19    1
     7    19    20   ar
     8    20    21   ar
     9    21    22   ar
    10    22    23   ar
    11    23    24   ar
    12    13    14   ar
    13    14    15   ar
    14    15    16   ar
    15    16     1    1
    16     1     2   ar
    17     2     3   ar
    18     3     4   ar
    19     4     5   ar
    20     5     6   ar
    21     6     7   ar
    22     7     8   ar
    23     8    25    1
    24    25    26    1
    25    26    27    1
    26    27    28    1
    27    28    29    1
    28    29    30    1
    29    30    31    1
    30    30    32    1
    31     5     9   ar
    32    16    11   ar
    33     9     1   ar
    34    24    19   ar
    35     8     4   ar
    36    32    27    1
    37    31    33    1
@<TRIPOS>MOLECULE
*****
 33 37 0 0 0
SMALL
GASTEIGER

@<TRIPOS>ATOM
      1 C          61.2308   92.6707    2.5861 C.ar    1  UNL1        0.0670
      2 C          62.0997   91.6871    3.3124 C.ar    1  UNL1        0.0191
      3 C          61.5274   90.8590    4.4244 C.ar    1  UNL1        0.0203
      4 C          60.0862   91.0146    4.8102 C.ar    1  UNL1        0.0795
      5 C          59.2173   91.9982    4.0839 C.ar    1  UNL1        0.0396
      6 C          57.8433   91.9329    4.6819 C.ar    1  UNL1        0.1216
      7 N          57.8629   90.9089    5.7779 N.ar    1  UNL1       -0.1677
      8 N          59.2491   90.3413    5.8572 N.ar    1  UNL1       -0.2494
      9 C          59.7897   92.8263    2.9718 C.ar    1  UNL1        0.0207
     10 O          60.6596   91.9482   -0.2690 O.2     1  UNL1       -0.2665
     11 C          61.5175   93.1375    0.0464 C.ar    1  UNL1        0.2679
     12 C          62.0898   93.9656   -1.0657 C.ar    1  UNL1        0.0980
     13 C          62.9477   95.1550   -0.7503 C.ar    1  UNL1        0.1453
     14 C          63.2333   95.5162    0.6772 C.ar    1  UNL1        0.0561
     15 C          62.6610   94.6881    1.7894 C.ar    1  UNL1        0.0860
     16 N          61.8031   93.4988    1.4739 N.ar    1  UNL1       -0.2729
     17 O          63.5200   95.9830   -1.8624 O.3     1  UNL1       -0.4704
     18 C          64.6705   95.4607   -2.6707 C.3     1  UNL1        0.2320
     19 C          64.4125   94.6686   -3.9181 C.ar    1  UNL1        0.0212
     20 C          64.2871   95.3687   -5.2387 C.ar    1  UNL1       -0.0007
     21 C          64.0291   94.5765   -6.4860 C.ar    1  UNL1       -0.0002
     22 C          63.8963   93.0842   -6.4127 C.ar    1  UNL1       -0.0000
     23 C          64.0216   92.3841   -5.0921 C.ar    1  UNL1       -0.0002
     24 C          64.2797   93.1762   -3.8448 C.ar    1  UNL1       -0.0007
     25 C          59.7162   89.2859    6.8152 C.3     1  UNL1        0.1447
     26 C          59.7865   89.5839    8.2836 C.3     1  UNL1        0.0988
     27 N          60.4653   88.6217    9.2126 N.3     1  UNL1       -0.2689
     28 C          60.2458   87.1386    9.2605 C.3     1  UNL1        0.0748
     29 C          61.1278   86.5739   10.3343 C.3     1  UNL1        0.0480
     30 C          61.8924   87.7080   10.9502 C.3     1  UNL1        0.1278
     31 O          62.8912   87.5961   12.0638 O.3     1  UNL1       -0.3830
     32 C          61.4830   88.9736   10.2569 C.3     1  UNL1        0.1017
     33 H          63.2402   88.4762   12.2746 H       1  UNL1        0.2104
@<TRIPOS>BOND
     1    10    11    2
     2    11    12   ar
     3    12    13   ar
     4    13    17    1
     5    17    18    1
     6    18    19    1
     7    19    20   ar
     8    20    21   ar
     9    21    22   ar
    10    22    23   ar
    11    23    24   ar
    12    13    14   ar
    13    14    15   ar
    14    15    16   ar
    15    16     1    1
    16     1     2   ar
    17     2     3   ar
    18     3     4   ar
    19     4     5   ar
    20     5     6   ar
    21     6     7   ar
    22     7     8   ar
    23     8    25    1
    24    25    26    1
    25    26    27    1
    26    27    28    1
    27    28    29    1
    28    29    30    1
    29    30    31    1
    30    30    32    1
    31     5     9   ar
    32    16    11   ar
    33     9     1   ar
    34    24    19   ar
    35     8     4   ar
    36    32    27    1
    37    31    33    1
