@<TRIPOS>MOLECULE
*****
 27 30 0 0 0
SMALL
GASTEIGER

@<TRIPOS>ATOM
      1 C          63.5930   89.8491   13.1702 C.ar    1  UNL1        0.1446
      2 C          64.0430   88.8212   14.1655 C.ar    1  UNL1        0.0389
      3 C          63.8535   87.3620   13.8745 C.ar    1  UNL1        0.0204
      4 C          64.1942   86.1296   14.6587 C.ar    1  UNL1        0.0233
      5 C          63.7651   84.9366   13.8570 C.ar    1  UNL1        0.1140
      6 N          63.1593   85.4317   12.5773 N.ar    1  UNL1       -0.3238
      7 C          63.2138   86.9307   12.5881 C.ar    1  UNL1        0.0607
      8 C          62.7638   87.9586   11.5927 C.ar    1  UNL1        0.0269
      9 C          62.9533   89.4178   11.8838 C.ar    1  UNL1        0.0699
     10 BR         62.5032   90.4458   10.8884 Br      1  UNL1       -0.0458
     11 C          62.6361   84.4537   11.5675 C.3     1  UNL1        0.1052
     12 C          62.0302   84.9488   10.2877 C.3     1  UNL1        0.0263
     13 C          62.7189   82.9805   11.8375 C.3     1  UNL1        0.1122
     14 N          63.3247   82.4853   13.1172 N.am    1  UNL1       -0.2978
     15 C          63.8479   83.4634   14.1270 C.2     1  UNL1        0.2618
     16 O          64.4538   82.9682   15.4067 O.2     1  UNL1       -0.2686
     17 H          63.3790   81.5184   13.2943 H       1  UNL1        0.1498
     18 O          63.7825   91.3084   13.4612 O.3     1  UNL1       -0.4786
     19 N          67.6110   92.7501   15.3358 N.3     1  UNL1       -0.2737
     20 C          66.3842   92.5694   16.1799 C.3     1  UNL1        0.0758
     21 C          65.1080   92.0888   15.5550 C.3     1  UNL1        0.0609
     22 C          65.0586   91.7890   14.0861 C.3     1  UNL1        0.1687
     23 C          66.2854   91.9697   13.2421 C.3     1  UNL1        0.0609
     24 C          67.5616   92.4503   13.8669 C.3     1  UNL1        0.0758
     25 C          69.8581   92.2435   16.5373 C.3     1  UNL1        0.0173
     26 C          68.8871   93.2307   15.9607 C.3     1  UNL1        0.0576
     27 C          69.1922   94.6986   16.0090 C.3     1  UNL1        0.0173
@<TRIPOS>BOND
     1    25    26    1
     2    26    27    1
     3    26    19    1
     4    19    20    1
     5    20    21    1
     6    21    22    1
     7    22    18    1
     8    18     1    1
     9     1     2   ar
    10     2     3   ar
    11     3     4   ar
    12     4     5   ar
    13     5     6   ar
    14     6     7   ar
    15     7     8   ar
    16     8     9   ar
    17     9    10    1
    18     6    11    1
    19    11    12    1
    20    11    13    1
    21    13    14    1
    22    14    15   am
    23    15    16    2
    24    22    23    1
    25    23    24    1
    26    24    19    1
    27     9     1   ar
    28     7     3   ar
    29    15     5    1
    30    14    17    1
@<TRIPOS>MOLECULE
*****
 27 30 0 0 0
SMALL
GASTEIGER

@<TRIPOS>ATOM
      1 C          62.4007   88.8733   11.7601 C.ar    1  UNL1        0.1446
      2 C          63.1574   89.0059   13.0484 C.ar    1  UNL1        0.0389
      3 C          64.0735   90.1740   13.2633 C.ar    1  UNL1        0.0204
      4 C          64.9428   90.5683   14.4204 C.ar    1  UNL1        0.0233
      5 C          65.6395   91.8475   14.0620 C.ar    1  UNL1        0.1140
      6 N          65.2008   92.2437   12.6835 N.ar    1  UNL1       -0.3238
      7 C          64.2330   91.2095   12.1898 C.ar    1  UNL1        0.0607
      8 C          63.4763   91.0769   10.9015 C.ar    1  UNL1        0.0269
      9 C          62.5602   89.9088   10.6866 C.ar    1  UNL1        0.0699
     10 BR         61.8034   89.7761    9.3983 Br      1  UNL1       -0.0458
     11 C          65.7393   93.4951   12.0558 C.3     1  UNL1        0.1052
     12 C          65.3006   93.8914   10.6771 C.3     1  UNL1        0.0263
     13 C          66.7165   94.3502   12.8067 C.3     1  UNL1        0.1122
     14 N          67.1552   93.9540   14.1853 N.am    1  UNL1       -0.2978
     15 C          66.6167   92.7026   14.8129 C.2     1  UNL1        0.2618
     16 O          67.0555   92.3063   16.1915 O.2     1  UNL1       -0.2686
     17 H          67.7966   94.5152   14.6781 H       1  UNL1        0.1498
     18 O          61.4845   87.7051   11.5452 O.3     1  UNL1       -0.4786
     19 N          63.1330   83.5181   11.5715 N.3     1  UNL1       -0.2737
     20 C          62.9236   84.2335   10.2699 C.3     1  UNL1        0.0758
     21 C          62.3741   85.6292   10.2611 C.3     1  UNL1        0.0609
     22 C          62.0340   86.3095   11.5540 C.3     1  UNL1        0.1687
     23 C          62.2435   85.5940   12.8557 C.3     1  UNL1        0.0609
     24 C          62.7930   84.1983   12.8644 C.3     1  UNL1        0.0758
     25 C          64.3402   81.5830   12.8158 C.3     1  UNL1        0.0173
     26 C          63.6825   82.1224   11.5803 C.3     1  UNL1        0.0576
     27 C          63.5744   81.2661   10.3534 C.3     1  UNL1        0.0173
@<TRIPOS>BOND
     1    25    26    1
     2    26    27    1
     3    26    19    1
     4    19    20    1
     5    20    21    1
     6    21    22    1
     7    22    18    1
     8    18     1    1
     9     1     2   ar
    10     2     3   ar
    11     3     4   ar
    12     4     5   ar
    13     5     6   ar
    14     6     7   ar
    15     7     8   ar
    16     8     9   ar
    17     9    10    1
    18     6    11    1
    19    11    12    1
    20    11    13    1
    21    13    14    1
    22    14    15   am
    23    15    16    2
    24    22    23    1
    25    23    24    1
    26    24    19    1
    27     9     1   ar
    28     7     3   ar
    29    15     5    1
    30    14    17    1
@<TRIPOS>MOLECULE
*****
 27 30 0 0 0
SMALL
GASTEIGER

@<TRIPOS>ATOM
      1 C          63.5536   89.5986   13.1266 C.ar    1  UNL1        0.1446
      2 C          64.0686   88.6287   14.1484 C.ar    1  UNL1        0.0389
      3 C          63.9073   87.1535   13.9303 C.ar    1  UNL1        0.0204
      4 C          64.3104   85.9670   14.7548 C.ar    1  UNL1        0.0233
      5 C          63.8833   84.7284   14.0245 C.ar    1  UNL1        0.1140
      6 N          63.2161   85.1493   12.7487 N.ar    1  UNL1       -0.3238
      7 C          63.2309   86.6481   12.6905 C.ar    1  UNL1        0.0607
      8 C          62.7159   87.6180   11.6687 C.ar    1  UNL1        0.0269
      9 C          62.8773   89.0933   11.8868 C.ar    1  UNL1        0.0699
     10 BR         62.3623   90.0632   10.8650 Br      1  UNL1       -0.0458
     11 C          62.6813   84.1135   11.8048 C.3     1  UNL1        0.1052
     12 C          62.0141   84.5344   10.5290 C.3     1  UNL1        0.0263
     13 C          62.8137   82.6566   12.1367 C.3     1  UNL1        0.1122
     14 N          63.4808   82.2357   13.4125 N.am    1  UNL1       -0.2978
     15 C          64.0157   83.2715   14.3564 C.2     1  UNL1        0.2618
     16 O          64.6828   82.8505   15.6322 O.2     1  UNL1       -0.2686
     17 H          63.5677   81.2795   13.6303 H       1  UNL1        0.1498
     18 O          63.7150   91.0739   13.3446 O.3     1  UNL1       -0.4786
     19 N          66.5657   93.4289   10.7800 N.3     1  UNL1       -0.2737
     20 C          66.9523   93.0518   12.1794 C.3     1  UNL1        0.0758
     21 C          66.0020   92.2668   13.0343 C.3     1  UNL1        0.0609
     22 C          64.6652   91.8589   12.4898 C.3     1  UNL1        0.1687
     23 C          64.2786   92.2360   11.0903 C.3     1  UNL1        0.0609
     24 C          65.2289   93.0210   10.2355 C.3     1  UNL1        0.0758
     25 C          67.3762   95.7038    9.8218 C.3     1  UNL1        0.0173
     26 C          67.5159   94.2139    9.9251 C.3     1  UNL1        0.0576
     27 C          68.6060   93.5090    9.1735 C.3     1  UNL1        0.0173
@<TRIPOS>BOND
     1    25    26    1
     2    26    27    1
     3    26    19    1
     4    19    20    1
     5    20    21    1
     6    21    22    1
     7    22    18    1
     8    18     1    1
     9     1     2   ar
    10     2     3   ar
    11     3     4   ar
    12     4     5   ar
    13     5     6   ar
    14     6     7   ar
    15     7     8   ar
    16     8     9   ar
    17     9    10    1
    18     6    11    1
    19    11    12    1
    20    11    13    1
    21    13    14    1
    22    14    15   am
    23    15    16    2
    24    22    23    1
    25    23    24    1
    26    24    19    1
    27     9     1   ar
    28     7     3   ar
    29    15     5    1
    30    14    17    1
@<TRIPOS>MOLECULE
*****
 27 30 0 0 0
SMALL
GASTEIGER

@<TRIPOS>ATOM
      1 C          62.3340   87.8196   11.0880 C.ar    1  UNL1        0.1446
      2 C          62.8310   87.4266   12.4476 C.ar    1  UNL1        0.0389
      3 C          63.0721   85.9815   12.7692 C.ar    1  UNL1        0.0204
      4 C          63.5564   85.2974   14.0131 C.ar    1  UNL1        0.0233
      5 C          63.5999   83.8224   13.7439 C.ar    1  UNL1        0.1140
      6 N          63.1425   83.5949   12.3336 N.ar    1  UNL1       -0.3238
      7 C          62.8162   84.9294   11.7312 C.ar    1  UNL1        0.0607
      8 C          62.3193   85.3223   10.3716 C.ar    1  UNL1        0.0269
      9 C          62.0782   86.7674   10.0500 C.ar    1  UNL1        0.0699
     10 BR         61.5813   87.1604    8.6903 Br      1  UNL1       -0.0458
     11 C          63.0821   82.2021   11.7802 C.3     1  UNL1        0.1052
     12 C          62.6246   81.9746   10.3698 C.3     1  UNL1        0.0263
     13 C          63.4791   81.0367   12.6371 C.3     1  UNL1        0.1122
     14 N          63.9366   81.2641   14.0474 N.am    1  UNL1       -0.2978
     15 C          63.9969   82.6570   14.6008 C.2     1  UNL1        0.2618
     16 O          64.4544   82.8844   16.0111 O.2     1  UNL1       -0.2686
     17 H          64.1972   80.4992   14.6098 H       1  UNL1        0.1498
     18 O          62.0929   89.2648   10.7663 O.3     1  UNL1       -0.4786
     19 N          65.0347   92.3913   12.1154 N.3     1  UNL1       -0.2737
     20 C          64.5793   92.3570   10.6867 C.3     1  UNL1        0.0758
     21 C          63.5986   91.3147   10.2369 C.3     1  UNL1        0.0609
     22 C          63.0735   90.3069   11.2160 C.3     1  UNL1        0.1687
     23 C          63.5290   90.3413   12.6448 C.3     1  UNL1        0.0609
     24 C          64.5096   91.3835   13.0945 C.3     1  UNL1        0.0758
     25 C          66.2686   94.6421   11.7135 C.3     1  UNL1        0.0173
     26 C          66.0153   93.4335   12.5651 C.3     1  UNL1        0.0576
     27 C          66.7426   93.2672   13.8664 C.3     1  UNL1        0.0173
@<TRIPOS>BOND
     1    25    26    1
     2    26    27    1
     3    26    19    1
     4    19    20    1
     5    20    21    1
     6    21    22    1
     7    22    18    1
     8    18     1    1
     9     1     2   ar
    10     2     3   ar
    11     3     4   ar
    12     4     5   ar
    13     5     6   ar
    14     6     7   ar
    15     7     8   ar
    16     8     9   ar
    17     9    10    1
    18     6    11    1
    19    11    12    1
    20    11    13    1
    21    13    14    1
    22    14    15   am
    23    15    16    2
    24    22    23    1
    25    23    24    1
    26    24    19    1
    27     9     1   ar
    28     7     3   ar
    29    15     5    1
    30    14    17    1
@<TRIPOS>MOLECULE
*****
 27 30 0 0 0
SMALL
GASTEIGER

@<TRIPOS>ATOM
      1 C          62.8517   90.0916   13.3278 C.ar    1  UNL1        0.1446
      2 C          61.9136   90.5284   12.2421 C.ar    1  UNL1        0.0389
      3 C          61.5481   89.5790   11.1398 C.ar    1  UNL1        0.0204
      4 C          60.6553   89.7259    9.9434 C.ar    1  UNL1        0.0233
      5 C          60.6762   88.4304    9.1876 C.ar    1  UNL1        0.1140
      6 N          61.5818   87.4829    9.9169 N.ar    1  UNL1       -0.3238
      7 C          62.1207   88.1927   11.1234 C.ar    1  UNL1        0.0607
      8 C          63.0589   87.7558   12.2092 C.ar    1  UNL1        0.0269
      9 C          63.4244   88.7053   13.3114 C.ar    1  UNL1        0.0699
     10 BR         64.3626   88.2685   14.3973 Br      1  UNL1       -0.0458
     11 C          61.7988   86.0961    9.3880 C.3     1  UNL1        0.1052
     12 C          62.7046   85.1484   10.1173 C.3     1  UNL1        0.0263
     13 C          61.1101   85.6568    8.1299 C.3     1  UNL1        0.1122
     14 N          60.2044   86.6044    7.4007 N.am    1  UNL1       -0.2978
     15 C          59.9875   87.9912    7.9295 C.2     1  UNL1        0.2618
     16 O          59.0818   88.9387    7.2002 O.2     1  UNL1       -0.2686
     17 H          59.7524   86.3161    6.5750 H       1  UNL1        0.1498
     18 O          63.2173   91.0410   14.4302 O.3     1  UNL1       -0.4786
     19 N          67.4622   92.4744   14.8498 N.3     1  UNL1       -0.2737
     20 C          66.9510   92.0253   13.5131 C.3     1  UNL1        0.0758
     21 C          65.5359   91.5475   13.3732 C.3     1  UNL1        0.0609
     22 C          64.6322   91.5188   14.5700 C.3     1  UNL1        0.1687
     23 C          65.1435   91.9680   15.9068 C.3     1  UNL1        0.0609
     24 C          66.5585   92.4457   16.0467 C.3     1  UNL1        0.0758
     25 C          69.2114   94.0265   15.9817 C.3     1  UNL1        0.0173
     26 C          68.8771   92.9522   14.9897 C.3     1  UNL1        0.0576
     27 C          69.9579   92.3556   14.1375 C.3     1  UNL1        0.0173
@<TRIPOS>BOND
     1    25    26    1
     2    26    27    1
     3    26    19    1
     4    19    20    1
     5    20    21    1
     6    21    22    1
     7    22    18    1
     8    18     1    1
     9     1     2   ar
    10     2     3   ar
    11     3     4   ar
    12     4     5   ar
    13     5     6   ar
    14     6     7   ar
    15     7     8   ar
    16     8     9   ar
    17     9    10    1
    18     6    11    1
    19    11    12    1
    20    11    13    1
    21    13    14    1
    22    14    15   am
    23    15    16    2
    24    22    23    1
    25    23    24    1
    26    24    19    1
    27     9     1   ar
    28     7     3   ar
    29    15     5    1
    30    14    17    1
@<TRIPOS>MOLECULE
*****
 27 30 0 0 0
SMALL
GASTEIGER

@<TRIPOS>ATOM
      1 C          63.6717   90.1117   13.7202 C.ar    1  UNL1        0.1446
      2 C          63.4947   89.0938   12.6329 C.ar    1  UNL1        0.0389
      3 C          63.4145   87.6358   12.9763 C.ar    1  UNL1        0.0204
      4 C          63.2435   86.4122   12.1257 C.ar    1  UNL1        0.0233
      5 C          63.2345   85.2161   13.0308 C.ar    1  UNL1        0.1140
      6 N          63.4000   85.7004   14.4407 N.ar    1  UNL1       -0.3238
      7 C          63.5113   87.1959   14.4071 C.ar    1  UNL1        0.0607
      8 C          63.6882   88.2139   15.4944 C.ar    1  UNL1        0.0269
      9 C          63.7684   89.6718   15.1510 C.ar    1  UNL1        0.0699
     10 BR         63.9453   90.6899   16.2383 Br      1  UNL1       -0.0458
     11 C          63.4279   84.7171   15.5731 C.3     1  UNL1        0.1052
     12 C          63.5934   85.2015   16.9832 C.3     1  UNL1        0.0263
     13 C          63.2904   83.2494   15.2955 C.3     1  UNL1        0.1122
     14 N          63.1249   82.7651   13.8856 N.am    1  UNL1       -0.2978
     15 C          63.0969   83.7484   12.7532 C.2     1  UNL1        0.2618
     16 O          62.9314   83.2640   11.3432 O.2     1  UNL1       -0.2686
     17 H          63.0346   81.8018   13.7034 H       1  UNL1        0.1498
     18 O          63.7519   91.5698   13.3768 O.3     1  UNL1       -0.4786
     19 N          66.8861   93.0344   10.4990 N.3     1  UNL1       -0.2737
     20 C          67.2633   92.6975   11.9111 C.3     1  UNL1        0.0758
     21 C          66.2186   92.2093   12.8705 C.3     1  UNL1        0.0609
     22 C          64.7966   92.0580   12.4176 C.3     1  UNL1        0.1687
     23 C          64.4194   92.3949   11.0054 C.3     1  UNL1        0.0609
     24 C          65.4641   92.8831   10.0461 C.3     1  UNL1        0.0758
     25 C          69.0482   92.6137    9.1214 C.3     1  UNL1        0.0173
     26 C          67.9308   93.5226    9.5398 C.3     1  UNL1        0.0576
     27 C          67.8581   94.9199    8.9989 C.3     1  UNL1        0.0173
@<TRIPOS>BOND
     1    25    26    1
     2    26    27    1
     3    26    19    1
     4    19    20    1
     5    20    21    1
     6    21    22    1
     7    22    18    1
     8    18     1    1
     9     1     2   ar
    10     2     3   ar
    11     3     4   ar
    12     4     5   ar
    13     5     6   ar
    14     6     7   ar
    15     7     8   ar
    16     8     9   ar
    17     9    10    1
    18     6    11    1
    19    11    12    1
    20    11    13    1
    21    13    14    1
    22    14    15   am
    23    15    16    2
    24    22    23    1
    25    23    24    1
    26    24    19    1
    27     9     1   ar
    28     7     3   ar
    29    15     5    1
    30    14    17    1
@<TRIPOS>MOLECULE
*****
 27 30 0 0 0
SMALL
GASTEIGER

@<TRIPOS>ATOM
      1 C          59.2853   93.1058   -2.8636 C.ar    1  UNL1        0.1446
      2 C          59.4289   92.4859   -1.5053 C.ar    1  UNL1        0.0389
      3 C          60.6627   92.7409   -0.6912 C.ar    1  UNL1        0.0204
      4 C          61.0822   92.2702    0.6699 C.ar    1  UNL1        0.0233
      5 C          62.4316   92.8542    0.9668 C.ar    1  UNL1        0.1140
      6 N          62.8460   93.6858   -0.2107 N.ar    1  UNL1       -0.3238
      7 C          61.7528   93.6158   -1.2355 C.ar    1  UNL1        0.0607
      8 C          61.6092   94.2357   -2.5938 C.ar    1  UNL1        0.0269
      9 C          60.3754   93.9807   -3.4078 C.ar    1  UNL1        0.0699
     10 BR         60.2317   94.6005   -4.7662 Br      1  UNL1       -0.0458
     11 C          64.1654   94.3993   -0.1978 C.3     1  UNL1        0.1052
     12 C          64.5799   95.2310   -1.3754 C.3     1  UNL1        0.0263
     13 C          65.0702   94.2813    0.9927 C.3     1  UNL1        0.1122
     14 N          64.6558   93.4497    2.1703 N.am    1  UNL1       -0.2978
     15 C          63.3364   92.7361    2.1573 C.2     1  UNL1        0.2618
     16 O          62.9220   91.9045    3.3349 O.2     1  UNL1       -0.2686
     17 H          65.2497   93.3722    2.9516 H       1  UNL1        0.1498
     18 O          58.0515   92.8508   -3.6777 O.3     1  UNL1       -0.4786
     19 N          54.3896   95.3949   -3.0708 N.3     1  UNL1       -0.2737
     20 C          54.9369   94.5847   -1.9332 C.3     1  UNL1        0.0758
     21 C          56.1576   93.7366   -2.1355 C.3     1  UNL1        0.0609
     22 C          56.8309   93.6988   -3.4754 C.3     1  UNL1        0.1687
     23 C          56.2835   94.5090   -4.6130 C.3     1  UNL1        0.0609
     24 C          55.0629   95.3570   -4.4107 C.3     1  UNL1        0.0758
     25 C          52.8953   96.8553   -1.5268 C.3     1  UNL1        0.0173
     26 C          53.1690   96.2429   -2.8685 C.3     1  UNL1        0.0576
     27 C          52.2221   96.4784   -4.0078 C.3     1  UNL1        0.0173
@<TRIPOS>BOND
     1    25    26    1
     2    26    27    1
     3    26    19    1
     4    19    20    1
     5    20    21    1
     6    21    22    1
     7    22    18    1
     8    18     1    1
     9     1     2   ar
    10     2     3   ar
    11     3     4   ar
    12     4     5   ar
    13     5     6   ar
    14     6     7   ar
    15     7     8   ar
    16     8     9   ar
    17     9    10    1
    18     6    11    1
    19    11    12    1
    20    11    13    1
    21    13    14    1
    22    14    15   am
    23    15    16    2
    24    22    23    1
    25    23    24    1
    26    24    19    1
    27     9     1   ar
    28     7     3   ar
    29    15     5    1
    30    14    17    1
@<TRIPOS>MOLECULE
*****
 27 30 0 0 0
SMALL
GASTEIGER

@<TRIPOS>ATOM
      1 C          63.6182   90.0402   13.6727 C.ar    1  UNL1        0.1446
      2 C          63.4177   89.0319   12.5805 C.ar    1  UNL1        0.0389
      3 C          63.3681   87.5694   12.9099 C.ar    1  UNL1        0.0204
      4 C          63.1841   86.3529   12.0517 C.ar    1  UNL1        0.0233
      5 C          63.2212   85.1469   12.9429 C.ar    1  UNL1        0.1140
      6 N          63.4281   85.6181   14.3519 N.ar    1  UNL1       -0.3238
      7 C          63.5189   87.1152   14.3315 C.ar    1  UNL1        0.0607
      8 C          63.7193   88.1235   15.4237 C.ar    1  UNL1        0.0269
      9 C          63.7690   89.5860   15.0943 C.ar    1  UNL1        0.0699
     10 BR         63.9695   90.5945   16.1866 Br      1  UNL1       -0.0458
     11 C          63.5071   84.6229   15.4715 C.3     1  UNL1        0.1052
     12 C          63.7140   85.0940   16.8805 C.3     1  UNL1        0.0263
     13 C          63.3792   83.1567   15.1820 C.3     1  UNL1        0.1122
     14 N          63.1723   82.6855   13.7731 N.am    1  UNL1       -0.2978
     15 C          63.0933   83.6807   12.6535 C.2     1  UNL1        0.2618
     16 O          62.8865   83.2095   11.2445 O.2     1  UNL1       -0.2686
     17 H          63.0884   81.7232   13.5831 H       1  UNL1        0.1498
     18 O          63.6679   91.5028   13.3434 O.3     1  UNL1       -0.4786
     19 N          66.8249   93.0737   10.5477 N.3     1  UNL1       -0.2737
     20 C          65.5001   92.6244   10.0064 C.3     1  UNL1        0.0758
     21 C          64.4477   92.1007   10.9383 C.3     1  UNL1        0.0609
     22 C          64.7202   92.0264   12.4115 C.3     1  UNL1        0.1687
     23 C          66.0451   92.4757   12.9528 C.3     1  UNL1        0.0609
     24 C          67.0974   92.9993   12.0209 C.3     1  UNL1        0.0758
     25 C          67.7633   94.9859    9.0602 C.3     1  UNL1        0.0173
     26 C          67.8772   93.5973    9.6159 C.3     1  UNL1        0.0576
     27 C          69.0435   92.7322    9.2396 C.3     1  UNL1        0.0173
@<TRIPOS>BOND
     1    25    26    1
     2    26    27    1
     3    26    19    1
     4    19    20    1
     5    20    21    1
     6    21    22    1
     7    22    18    1
     8    18     1    1
     9     1     2   ar
    10     2     3   ar
    11     3     4   ar
    12     4     5   ar
    13     5     6   ar
    14     6     7   ar
    15     7     8   ar
    16     8     9   ar
    17     9    10    1
    18     6    11    1
    19    11    12    1
    20    11    13    1
    21    13    14    1
    22    14    15   am
    23    15    16    2
    24    22    23    1
    25    23    24    1
    26    24    19    1
    27     9     1   ar
    28     7     3   ar
    29    15     5    1
    30    14    17    1
@<TRIPOS>MOLECULE
*****
 27 30 0 0 0
SMALL
GASTEIGER

@<TRIPOS>ATOM
      1 C          62.2175   89.0252   11.5902 C.ar    1  UNL1        0.1446
      2 C          63.0163   89.0470   12.8596 C.ar    1  UNL1        0.0389
      3 C          63.9818   90.1651   13.1191 C.ar    1  UNL1        0.0204
      4 C          64.8992   90.4523   14.2706 C.ar    1  UNL1        0.0233
      5 C          65.6328   91.7262   13.9725 C.ar    1  UNL1        0.1140
      6 N          65.1689   92.2264   12.6366 N.ar    1  UNL1       -0.3238
      7 C          64.1485   91.2616   12.1092 C.ar    1  UNL1        0.0607
      8 C          63.3497   91.2399   10.8398 C.ar    1  UNL1        0.0269
      9 C          62.3842   90.1217   10.5803 C.ar    1  UNL1        0.0699
     10 BR         61.5853   90.1000    9.3109 Br      1  UNL1       -0.0458
     11 C          65.7355   93.4957   12.0730 C.3     1  UNL1        0.1052
     12 C          65.2716   93.9960   10.7371 C.3     1  UNL1        0.0263
     13 C          66.7660   94.2649   12.8453 C.3     1  UNL1        0.1122
     14 N          67.2299   93.7647   14.1812 N.am    1  UNL1       -0.2978
     15 C          66.6633   92.4953   14.7448 C.2     1  UNL1        0.2618
     16 O          67.1272   91.9951   16.0806 O.2     1  UNL1       -0.2686
     17 H          67.9063   94.2695   14.6881 H       1  UNL1        0.1498
     18 O          61.2519   87.9070   11.3307 O.3     1  UNL1       -0.4786
     19 N          61.6308   85.4289    7.5937 N.3     1  UNL1       -0.2737
     20 C          60.3258   86.0892    7.9266 C.3     1  UNL1        0.0758
     21 C          60.1994   86.9153    9.1723 C.3     1  UNL1        0.0609
     22 C          61.3782   87.0810   10.0851 C.3     1  UNL1        0.1687
     23 C          62.6832   86.4206    9.7522 C.3     1  UNL1        0.0609
     24 C          62.8095   85.5945    8.5065 C.3     1  UNL1        0.0758
     25 C          63.0551   84.5720    5.5970 C.3     1  UNL1        0.0173
     26 C          61.7570   84.6028    6.3481 C.3     1  UNL1        0.0576
     27 C          60.5852   83.8076    5.8535 C.3     1  UNL1        0.0173
@<TRIPOS>BOND
     1    25    26    1
     2    26    27    1
     3    26    19    1
     4    19    20    1
     5    20    21    1
     6    21    22    1
     7    22    18    1
     8    18     1    1
     9     1     2   ar
    10     2     3   ar
    11     3     4   ar
    12     4     5   ar
    13     5     6   ar
    14     6     7   ar
    15     7     8   ar
    16     8     9   ar
    17     9    10    1
    18     6    11    1
    19    11    12    1
    20    11    13    1
    21    13    14    1
    22    14    15   am
    23    15    16    2
    24    22    23    1
    25    23    24    1
    26    24    19    1
    27     9     1   ar
    28     7     3   ar
    29    15     5    1
    30    14    17    1
