@<TRIPOS>MOLECULE
*****
 21 23 0 0 0
SMALL
GASTEIGER

@<TRIPOS>ATOM
      1 C          62.7936   91.1662   10.0267 C.3     1  UNL1        0.0521
      2 C          63.6218   91.1707   11.2774 C.ar    1  UNL1        0.0604
      3 N          64.7080   92.1900   11.4540 N.ar    1  UNL1       -0.2496
      4 C          65.5361   92.1945   12.7048 C.ar    1  UNL1        0.0809
      5 C          66.6224   93.2137   12.8813 C.ar    1  UNL1        0.0199
      6 C          67.4504   93.2182   14.1320 C.ar    1  UNL1        0.0129
      7 C          67.1923   92.2035   15.2061 C.ar    1  UNL1        0.0578
      8 CL         68.0204   92.2081   16.4568 Cl      1  UNL1       -0.0822
      9 C          66.1060   91.1843   15.0295 C.ar    1  UNL1        0.0129
     10 C          65.2780   91.1798   13.7789 C.ar    1  UNL1        0.0185
     11 C          64.1917   90.1605   13.6022 C.ar    1  UNL1        0.0037
     12 C          63.3636   90.1560   12.3516 C.ar    1  UNL1        0.0276
     13 C          63.9335   89.1458   14.6763 C.ar    1  UNL1        0.0001
     14 C          64.3909   87.7287   14.4950 C.ar    1  UNL1        0.0000
     15 C          64.1327   86.7140   15.5691 C.ar    1  UNL1        0.0000
     16 C          63.4172   87.1164   16.8245 C.ar    1  UNL1        0.0000
     17 C          62.9598   88.5333   17.0059 C.ar    1  UNL1        0.0000
     18 C          63.2180   89.5481   15.9318 C.ar    1  UNL1        0.0000
     19 C          62.2773   89.1367   12.1749 C.2     1  UNL1        0.0740
     20 O          60.8599   89.4835   12.5222 O.co2   1  UNL1       -0.5446
     21 O          62.6085   87.7708   11.6511 O.co2   1  UNL1       -0.5446
@<TRIPOS>UNITY_ATOM_ATTR
20 1
charge -1
@<TRIPOS>BOND
     1     1     2    1
     2     2     3   ar
     3     3     4   ar
     4     4     5   ar
     5     5     6   ar
     6     6     7   ar
     7     7     8    1
     8     7     9   ar
     9     9    10   ar
    10    10    11   ar
    11    11    13    1
    12    13    14   ar
    13    14    15   ar
    14    15    16   ar
    15    16    17   ar
    16    17    18   ar
    17    11    12   ar
    18    12    19    1
    19    19    20   ar
    20    19    21   ar
    21    12     2   ar
    22    10     4   ar
    23    18    13   ar
@<TRIPOS>MOLECULE
*****
 21 23 0 0 0
SMALL
GASTEIGER

@<TRIPOS>ATOM
      1 C          64.4616   88.2698   14.7688 C.3     1  UNL1        0.0521
      2 C          63.7596   87.6305   13.6075 C.ar    1  UNL1        0.0604
      3 N          63.0979   88.4857   12.5679 N.ar    1  UNL1       -0.2496
      4 C          62.3960   87.8464   11.4065 C.ar    1  UNL1        0.0809
      5 C          61.7343   88.7015   10.3669 C.ar    1  UNL1        0.0199
      6 C          61.0324   88.0622    9.2057 C.ar    1  UNL1        0.0129
      7 C          60.9921   86.5677    9.0841 C.ar    1  UNL1        0.0578
      8 CL         60.2901   85.9284    7.9228 Cl      1  UNL1       -0.0822
      9 C          61.6538   85.7125   10.1237 C.ar    1  UNL1        0.0129
     10 C          62.3557   86.3518   11.2849 C.ar    1  UNL1        0.0185
     11 C          63.0174   85.4966   12.3246 C.ar    1  UNL1        0.0037
     12 C          63.7193   86.1360   13.4858 C.ar    1  UNL1        0.0276
     13 C          62.9771   84.0021   12.2030 C.ar    1  UNL1        0.0001
     14 C          63.6541   83.3251   11.0482 C.ar    1  UNL1        0.0000
     15 C          63.6138   81.8306   10.9266 C.ar    1  UNL1        0.0000
     16 C          62.8966   81.0131   11.9597 C.ar    1  UNL1        0.0000
     17 C          62.2197   81.6901   13.1144 C.ar    1  UNL1        0.0000
     18 C          62.2599   83.1846   13.2361 C.ar    1  UNL1        0.0000
     19 C          64.3810   85.2808   14.5255 C.2     1  UNL1        0.0740
     20 O          63.7222   85.0745   15.8572 O.co2   1  UNL1       -0.5446
     21 O          65.7015   84.6319   14.2335 O.co2   1  UNL1       -0.5446
@<TRIPOS>UNITY_ATOM_ATTR
20 1
charge -1
@<TRIPOS>BOND
     1     1     2    1
     2     2     3   ar
     3     3     4   ar
     4     4     5   ar
     5     5     6   ar
     6     6     7   ar
     7     7     8    1
     8     7     9   ar
     9     9    10   ar
    10    10    11   ar
    11    11    13    1
    12    13    14   ar
    13    14    15   ar
    14    15    16   ar
    15    16    17   ar
    16    17    18   ar
    17    11    12   ar
    18    12    19    1
    19    19    20   ar
    20    19    21   ar
    21    12     2   ar
    22    10     4   ar
    23    18    13   ar
@<TRIPOS>MOLECULE
*****
 21 23 0 0 0
SMALL
GASTEIGER

@<TRIPOS>ATOM
      1 C          63.8945   89.6921   13.6858 C.3     1  UNL1        0.0521
      2 C          63.5659   88.3181   13.1816 C.ar    1  UNL1        0.0604
      3 N          64.0254   87.1100   13.9428 N.ar    1  UNL1       -0.2496
      4 C          63.6968   85.7360   13.4386 C.ar    1  UNL1        0.0809
      5 C          64.1562   84.5280   14.1998 C.ar    1  UNL1        0.0199
      6 C          63.8276   83.1541   13.6956 C.ar    1  UNL1        0.0129
      7 C          63.0395   82.9882   12.4301 C.ar    1  UNL1        0.0578
      8 CL         62.7109   81.6142   11.9259 Cl      1  UNL1       -0.0822
      9 C          62.5801   84.1962   11.6689 C.ar    1  UNL1        0.0129
     10 C          62.9087   85.5701   12.1731 C.ar    1  UNL1        0.0185
     11 C          62.4492   86.7783   11.4119 C.ar    1  UNL1        0.0037
     12 C          62.7778   88.1522   11.9161 C.ar    1  UNL1        0.0276
     13 C          61.6611   86.6124   10.1464 C.ar    1  UNL1        0.0001
     14 C          60.2367   87.0784   10.0834 C.ar    1  UNL1        0.0000
     15 C          59.4486   86.9125    8.8179 C.ar    1  UNL1        0.0000
     16 C          60.0850   86.2806    7.6155 C.ar    1  UNL1        0.0000
     17 C          61.5094   85.8146    7.6785 C.ar    1  UNL1        0.0000
     18 C          62.2974   85.9805    8.9440 C.ar    1  UNL1        0.0000
     19 C          62.3184   89.3603   11.1549 C.2     1  UNL1        0.0740
     20 O          63.1146   89.8570    9.9847 O.co2   1  UNL1       -0.5446
     21 O          61.0628   90.0717   11.5639 O.co2   1  UNL1       -0.5446
@<TRIPOS>UNITY_ATOM_ATTR
20 1
charge -1
@<TRIPOS>BOND
     1     1     2    1
     2     2     3   ar
     3     3     4   ar
     4     4     5   ar
     5     5     6   ar
     6     6     7   ar
     7     7     8    1
     8     7     9   ar
     9     9    10   ar
    10    10    11   ar
    11    11    13    1
    12    13    14   ar
    13    14    15   ar
    14    15    16   ar
    15    16    17   ar
    16    17    18   ar
    17    11    12   ar
    18    12    19    1
    19    19    20   ar
    20    19    21   ar
    21    12     2   ar
    22    10     4   ar
    23    18    13   ar
@<TRIPOS>MOLECULE
*****
 21 23 0 0 0
SMALL
GASTEIGER

@<TRIPOS>ATOM
      1 C          64.2634   83.7413   14.4637 C.3     1  UNL1        0.0521
      2 C          63.8700   84.9466   13.6621 C.ar    1  UNL1        0.0604
      3 N          64.0544   86.3208   14.2344 N.ar    1  UNL1       -0.2496
      4 C          63.6610   87.5261   13.4329 C.ar    1  UNL1        0.0809
      5 C          63.8454   88.9003   14.0052 C.ar    1  UNL1        0.0199
      6 C          63.4520   90.1056   13.2037 C.ar    1  UNL1        0.0129
      7 C          62.8742   89.9367   11.8298 C.ar    1  UNL1        0.0578
      8 CL         62.4808   91.1420   11.0282 Cl      1  UNL1       -0.0822
      9 C          62.6897   88.5625   11.2574 C.ar    1  UNL1        0.0129
     10 C          63.0831   87.3572   12.0590 C.ar    1  UNL1        0.0185
     11 C          62.8987   85.9830   11.4867 C.ar    1  UNL1        0.0037
     12 C          63.2921   84.7777   12.2882 C.ar    1  UNL1        0.0276
     13 C          62.3208   85.8141   10.1128 C.ar    1  UNL1        0.0001
     14 C          60.8971   86.2034    9.8449 C.ar    1  UNL1        0.0000
     15 C          60.3193   86.0345    8.4710 C.ar    1  UNL1        0.0000
     16 C          61.1651   85.4763    7.3650 C.ar    1  UNL1        0.0000
     17 C          62.5887   85.0870    7.6330 C.ar    1  UNL1        0.0000
     18 C          63.1665   85.2559    9.0069 C.ar    1  UNL1        0.0000
     19 C          63.1076   83.4035   11.7159 C.2     1  UNL1        0.0740
     20 O          61.9431   82.5618   12.1465 O.co2   1  UNL1       -0.5446
     21 O          64.0877   82.8709   10.7130 O.co2   1  UNL1       -0.5446
@<TRIPOS>UNITY_ATOM_ATTR
20 1
charge -1
@<TRIPOS>BOND
     1     1     2    1
     2     2     3   ar
     3     3     4   ar
     4     4     5   ar
     5     5     6   ar
     6     6     7   ar
     7     7     8    1
     8     7     9   ar
     9     9    10   ar
    10    10    11   ar
    11    11    13    1
    12    13    14   ar
    13    14    15   ar
    14    15    16   ar
    15    16    17   ar
    16    17    18   ar
    17    11    12   ar
    18    12    19    1
    19    19    20   ar
    20    19    21   ar
    21    12     2   ar
    22    10     4   ar
    23    18    13   ar
@<TRIPOS>MOLECULE
*****
 21 23 0 0 0
SMALL
GASTEIGER

@<TRIPOS>ATOM
      1 C          59.4177   88.8444    7.2778 C.3     1  UNL1        0.0521
      2 C          60.3341   88.6439    8.4484 C.ar    1  UNL1        0.0604
      3 N          60.6935   89.8052    9.3270 N.ar    1  UNL1       -0.2496
      4 C          61.6098   89.6048   10.4976 C.ar    1  UNL1        0.0809
      5 C          61.9692   90.7661   11.3762 C.ar    1  UNL1        0.0199
      6 C          62.8855   90.5656   12.5467 C.ar    1  UNL1        0.0129
      7 C          63.4424   89.2038   12.8386 C.ar    1  UNL1        0.0578
      8 CL         64.3588   89.0033   14.0092 Cl      1  UNL1       -0.0822
      9 C          63.0830   88.0424   11.9600 C.ar    1  UNL1        0.0129
     10 C          62.1667   88.2429   10.7895 C.ar    1  UNL1        0.0185
     11 C          61.8073   87.0815    9.9108 C.ar    1  UNL1        0.0037
     12 C          60.8910   87.2820    8.7402 C.ar    1  UNL1        0.0276
     13 C          62.3642   85.7197   10.2026 C.ar    1  UNL1        0.0001
     14 C          63.3003   85.0677    9.2286 C.ar    1  UNL1        0.0000
     15 C          63.8572   83.7058    9.5205 C.ar    1  UNL1        0.0000
     16 C          63.4781   82.9960   10.7864 C.ar    1  UNL1        0.0000
     17 C          62.5420   83.6480   11.7603 C.ar    1  UNL1        0.0000
     18 C          61.9851   85.0098   11.4684 C.ar    1  UNL1        0.0000
     19 C          60.5316   86.1207    7.8615 C.2     1  UNL1        0.0740
     20 O          61.6026   85.3947    7.1027 O.co2   1  UNL1       -0.5446
     21 O          59.1012   85.6853    7.7417 O.co2   1  UNL1       -0.5446
@<TRIPOS>UNITY_ATOM_ATTR
20 1
charge -1
@<TRIPOS>BOND
     1     1     2    1
     2     2     3   ar
     3     3     4   ar
     4     4     5   ar
     5     5     6   ar
     6     6     7   ar
     7     7     8    1
     8     7     9   ar
     9     9    10   ar
    10    10    11   ar
    11    11    13    1
    12    13    14   ar
    13    14    15   ar
    14    15    16   ar
    15    16    17   ar
    16    17    18   ar
    17    11    12   ar
    18    12    19    1
    19    19    20   ar
    20    19    21   ar
    21    12     2   ar
    22    10     4   ar
    23    18    13   ar
