@<TRIPOS>MOLECULE
*****
 24 27 0 0 0
SMALL
GASTEIGER

@<TRIPOS>ATOM
      1 C          62.7191   86.1617   11.6350 C.3     1  UNL1        0.0991
      2 C          63.3587   81.7079   11.5733 C.ar    1  UNL1       -0.0000
      3 C          62.3395   82.3065   12.4967 C.ar    1  UNL1       -0.0003
      4 C          62.1263   83.7911   12.5173 C.ar    1  UNL1       -0.0029
      5 C          62.9323   84.6771   11.6144 C.ar    1  UNL1       -0.0061
      6 C          63.9515   84.0785   10.6909 C.ar    1  UNL1       -0.0029
      7 C          64.1647   82.5939   10.6704 C.ar    1  UNL1       -0.0003
      8 N          63.3366   86.9932   12.7200 N.3     1  UNL1       -0.2690
      9 C          63.9185   86.4775   14.0029 C.3     1  UNL1        0.0724
     10 C          64.4222   87.6519   14.7885 C.3     1  UNL1        0.0188
     11 C          64.1517   88.8934   13.9912 C.3     1  UNL1        0.0188
     12 C          63.4807   88.4862   12.7128 C.3     1  UNL1        0.0724
     13 C          61.8884   86.8149   10.5705 C.3     1  UNL1        0.0991
     14 C          61.7449   86.1646    9.2264 C.ar    1  UNL1       -0.0061
     15 C          60.4027   86.1102    8.5590 C.ar    1  UNL1       -0.0029
     16 C          60.2592   85.4598    7.2149 C.ar    1  UNL1       -0.0003
     17 C          61.4581   84.8638    6.5384 C.ar    1  UNL1       -0.0000
     18 C          62.8002   84.9182    7.2059 C.ar    1  UNL1       -0.0003
     19 C          62.9437   85.5686    8.5499 C.ar    1  UNL1       -0.0029
     20 N          61.2010   88.1186   10.8500 N.3     1  UNL1       -0.2690
     21 C          60.0140   88.3152   11.7457 C.3     1  UNL1        0.0724
     22 C          59.6594   89.7726   11.7322 C.3     1  UNL1        0.0188
     23 C          60.6273   90.4768   10.8280 C.3     1  UNL1        0.0188
     24 C          61.5800   89.4545   10.2828 C.3     1  UNL1        0.0724
@<TRIPOS>BOND
     1     2     3   ar
     2     3     4   ar
     3     4     5   ar
     4     5     1    1
     5     1    13    1
     6    13    14    1
     7    14    15   ar
     8    15    16   ar
     9    16    17   ar
    10    17    18   ar
    11    18    19   ar
    12    13    20    1
    13    20    21    1
    14    21    22    1
    15    22    23    1
    16    23    24    1
    17     1     8    1
    18     8     9    1
    19     9    10    1
    20    10    11    1
    21    11    12    1
    22     5     6   ar
    23     6     7   ar
    24     7     2   ar
    25    19    14   ar
    26    24    20    1
    27    12     8    1
@<TRIPOS>MOLECULE
*****
 24 27 0 0 0
SMALL
GASTEIGER

@<TRIPOS>ATOM
      1 C          61.8687   86.8132   10.5701 C.3     1  UNL1        0.0991
      2 C          61.4450   84.8658    6.5354 C.ar    1  UNL1       -0.0000
      3 C          60.2449   85.4596    7.2113 C.ar    1  UNL1       -0.0003
      4 C          60.3861   86.1087    8.5562 C.ar    1  UNL1       -0.0029
      5 C          61.7275   86.1640    9.2252 C.ar    1  UNL1       -0.0061
      6 C          62.9276   85.5703    8.5493 C.ar    1  UNL1       -0.0029
      7 C          62.7864   84.9211    7.2044 C.ar    1  UNL1       -0.0003
      8 N          61.1719   88.1109   10.8533 N.3     1  UNL1       -0.2690
      9 C          60.0062   88.3024   11.7779 C.3     1  UNL1        0.0724
     10 C          59.6324   89.7549   11.7578 C.3     1  UNL1        0.0188
     11 C          60.5669   90.4612   10.8208 C.3     1  UNL1        0.0188
     12 C          61.5184   89.4452   10.2619 C.3     1  UNL1        0.0724
     13 C          62.7066   86.1645   11.6317 C.3     1  UNL1        0.0991
     14 C          62.9252   84.6806   11.6122 C.ar    1  UNL1       -0.0061
     15 C          62.1245   83.7926   12.5180 C.ar    1  UNL1       -0.0029
     16 C          62.3431   82.3088   12.4985 C.ar    1  UNL1       -0.0003
     17 C          63.3624   81.7129   11.5732 C.ar    1  UNL1       -0.0000
     18 C          64.1630   82.6009   10.6675 C.ar    1  UNL1       -0.0003
     19 C          63.9444   84.0848   10.6870 C.ar    1  UNL1       -0.0029
     20 N          63.3260   86.9997   12.7128 N.3     1  UNL1       -0.2690
     21 C          63.4631   88.4934   12.7037 C.3     1  UNL1        0.0724
     22 C          64.1388   88.9047   13.9782 C.3     1  UNL1        0.0188
     23 C          64.4194   87.6651   14.7750 C.3     1  UNL1        0.0188
     24 C          63.9171   86.4878   13.9929 C.3     1  UNL1        0.0724
@<TRIPOS>BOND
     1     2     3   ar
     2     3     4   ar
     3     4     5   ar
     4     5     1    1
     5     1    13    1
     6    13    14    1
     7    14    15   ar
     8    15    16   ar
     9    16    17   ar
    10    17    18   ar
    11    18    19   ar
    12    13    20    1
    13    20    21    1
    14    21    22    1
    15    22    23    1
    16    23    24    1
    17     1     8    1
    18     8     9    1
    19     9    10    1
    20    10    11    1
    21    11    12    1
    22     5     6   ar
    23     6     7   ar
    24     7     2   ar
    25    19    14   ar
    26    24    20    1
    27    12     8    1
@<TRIPOS>MOLECULE
*****
 24 27 0 0 0
SMALL
GASTEIGER

@<TRIPOS>ATOM
      1 C          65.5448   91.4981   13.8119 C.3     1  UNL1        0.0991
      2 C          63.2308   88.5481   16.3006 C.ar    1  UNL1       -0.0000
      3 C          64.0492   88.0696   15.1381 C.ar    1  UNL1       -0.0003
      4 C          64.8205   89.0530   14.3086 C.ar    1  UNL1       -0.0029
      5 C          64.7735   90.5148   14.6415 C.ar    1  UNL1       -0.0061
      6 C          63.9551   90.9932   15.8039 C.ar    1  UNL1       -0.0029
      7 C          63.1838   90.0099   16.6334 C.ar    1  UNL1       -0.0003
      8 N          66.7711   92.1542   14.3737 N.3     1  UNL1       -0.2690
      9 C          68.1877   91.8634   13.9752 C.3     1  UNL1        0.0724
     10 C          69.0883   92.7458   14.7879 C.3     1  UNL1        0.0188
     11 C          68.2283   93.5819   15.6887 C.3     1  UNL1        0.0188
     12 C          66.7962   93.2163   15.4327 C.3     1  UNL1        0.0724
     13 C          65.0898   91.8253   12.4206 C.3     1  UNL1        0.0991
     14 C          65.8983   92.7565   11.5666 C.ar    1  UNL1       -0.0061
     15 C          65.7789   94.2400   11.7539 C.ar    1  UNL1       -0.0029
     16 C          66.5873   95.1712   10.8999 C.ar    1  UNL1       -0.0003
     17 C          67.5153   94.6189    9.8587 C.ar    1  UNL1       -0.0000
     18 C          67.6346   93.1354    9.6715 C.ar    1  UNL1       -0.0003
     19 C          66.8261   92.2042   10.5255 C.ar    1  UNL1       -0.0029
     20 N          63.8263   91.2213   11.8831 N.3     1  UNL1       -0.2690
     21 C          63.4219   91.1618   10.4399 C.3     1  UNL1        0.0724
     22 C          62.0910   90.4745   10.3594 C.3     1  UNL1        0.0188
     23 C          61.6728   90.1093   11.7530 C.3     1  UNL1        0.0188
     24 C          62.7453   90.5709   12.6946 C.3     1  UNL1        0.0724
@<TRIPOS>BOND
     1     2     3   ar
     2     3     4   ar
     3     4     5   ar
     4     5     1    1
     5     1    13    1
     6    13    14    1
     7    14    15   ar
     8    15    16   ar
     9    16    17   ar
    10    17    18   ar
    11    18    19   ar
    12    13    20    1
    13    20    21    1
    14    21    22    1
    15    22    23    1
    16    23    24    1
    17     1     8    1
    18     8     9    1
    19     9    10    1
    20    10    11    1
    21    11    12    1
    22     5     6   ar
    23     6     7   ar
    24     7     2   ar
    25    19    14   ar
    26    24    20    1
    27    12     8    1
@<TRIPOS>MOLECULE
*****
 24 27 0 0 0
SMALL
GASTEIGER

@<TRIPOS>ATOM
      1 C          62.7633   85.9119   11.5739 C.3     1  UNL1        0.0991
      2 C          63.2015   81.4340   11.4984 C.ar    1  UNL1       -0.0000
      3 C          62.3269   82.0847   12.5287 C.ar    1  UNL1       -0.0003
      4 C          62.1808   83.5774   12.5539 C.ar    1  UNL1       -0.0029
      5 C          62.9094   84.4193   11.5487 C.ar    1  UNL1       -0.0061
      6 C          63.7840   83.7686   10.5184 C.ar    1  UNL1       -0.0029
      7 C          63.9300   82.2759   10.4933 C.ar    1  UNL1       -0.0003
      8 N          63.3621   86.7053   12.6973 N.3     1  UNL1       -0.2690
      9 C          63.9455   86.1439   13.9601 C.3     1  UNL1        0.0724
     10 C          64.4266   87.2909   14.7984 C.3     1  UNL1        0.0188
     11 C          64.1406   88.5613   14.0538 C.3     1  UNL1        0.0188
     12 C          63.4827   88.1993   12.7552 C.3     1  UNL1        0.0724
     13 C          62.0184   86.6113   10.4757 C.3     1  UNL1        0.0991
     14 C          61.3530   87.9290   10.7418 C.ar    1  UNL1       -0.0061
     15 C          61.9314   89.1900   10.1713 C.ar    1  UNL1       -0.0029
     16 C          61.2660   90.5077   10.4373 C.ar    1  UNL1       -0.0003
     17 C          60.0222   90.5645   11.2739 C.ar    1  UNL1       -0.0000
     18 C          59.4438   89.3035   11.8444 C.ar    1  UNL1       -0.0003
     19 C          60.1093   87.9858   11.5783 C.ar    1  UNL1       -0.0029
     20 N          61.9390   85.9929    9.1114 N.3     1  UNL1       -0.2690
     21 C          60.6955   85.8293    8.2886 C.3     1  UNL1        0.0724
     22 C          61.0771   85.1648    6.9991 C.3     1  UNL1        0.0188
     23 C          62.5564   84.9177    7.0249 C.3     1  UNL1        0.0188
     24 C          63.0891   85.4295    8.3304 C.3     1  UNL1        0.0724
@<TRIPOS>BOND
     1     2     3   ar
     2     3     4   ar
     3     4     5   ar
     4     5     1    1
     5     1    13    1
     6    13    14    1
     7    14    15   ar
     8    15    16   ar
     9    16    17   ar
    10    17    18   ar
    11    18    19   ar
    12    13    20    1
    13    20    21    1
    14    21    22    1
    15    22    23    1
    16    23    24    1
    17     1     8    1
    18     8     9    1
    19     9    10    1
    20    10    11    1
    21    11    12    1
    22     5     6   ar
    23     6     7   ar
    24     7     2   ar
    25    19    14   ar
    26    24    20    1
    27    12     8    1
@<TRIPOS>MOLECULE
*****
 24 27 0 0 0
SMALL
GASTEIGER

@<TRIPOS>ATOM
      1 C          61.9968   86.6189   10.4755 C.3     1  UNL1        0.0991
      2 C          59.9479   90.5437   11.2803 C.ar    1  UNL1       -0.0000
      3 C          61.1727   90.5005   10.4155 C.ar    1  UNL1       -0.0003
      4 C          61.8557   89.1922   10.1472 C.ar    1  UNL1       -0.0029
      5 C          61.3138   87.9271   10.7437 C.ar    1  UNL1       -0.0061
      6 C          60.0890   87.9703   11.6086 C.ar    1  UNL1       -0.0029
      7 C          59.4061   89.2786   11.8769 C.ar    1  UNL1       -0.0003
      8 N          61.9273   86.0027    9.1096 N.3     1  UNL1       -0.2690
      9 C          60.6889   85.8358    8.2797 C.3     1  UNL1        0.0724
     10 C          61.0801   85.1752    6.9910 C.3     1  UNL1        0.0188
     11 C          62.5603   84.9338    7.0245 C.3     1  UNL1        0.0188
     12 C          63.0838   85.4453    8.3339 C.3     1  UNL1        0.0724
     13 C          62.7493   85.9267   11.5730 C.3     1  UNL1        0.0991
     14 C          62.8996   84.4344   11.5539 C.ar    1  UNL1       -0.0061
     15 C          62.1741   83.5946   12.5631 C.ar    1  UNL1       -0.0029
     16 C          62.3243   82.1022   12.5440 C.ar    1  UNL1       -0.0003
     17 C          63.2001   81.4497   11.5157 C.ar    1  UNL1       -0.0000
     18 C          63.9255   82.2895   10.5066 C.ar    1  UNL1       -0.0003
     19 C          63.7753   83.7819   10.5257 C.ar    1  UNL1       -0.0029
     20 N          63.3517   86.7269   12.6897 N.3     1  UNL1       -0.2690
     21 C          63.4710   88.2213   12.7388 C.3     1  UNL1        0.0724
     22 C          64.1335   88.5912   14.0328 C.3     1  UNL1        0.0188
     23 C          64.4236   87.3253   14.7834 C.3     1  UNL1        0.0188
     24 C          63.9404   86.1731   13.9533 C.3     1  UNL1        0.0724
@<TRIPOS>BOND
     1     2     3   ar
     2     3     4   ar
     3     4     5   ar
     4     5     1    1
     5     1    13    1
     6    13    14    1
     7    14    15   ar
     8    15    16   ar
     9    16    17   ar
    10    17    18   ar
    11    18    19   ar
    12    13    20    1
    13    20    21    1
    14    21    22    1
    15    22    23    1
    16    23    24    1
    17     1     8    1
    18     8     9    1
    19     9    10    1
    20    10    11    1
    21    11    12    1
    22     5     6   ar
    23     6     7   ar
    24     7     2   ar
    25    19    14   ar
    26    24    20    1
    27    12     8    1
@<TRIPOS>MOLECULE
*****
 24 27 0 0 0
SMALL
GASTEIGER

@<TRIPOS>ATOM
      1 C          62.9770   85.1470   12.6335 C.3     1  UNL1        0.0991
      2 C          63.6230   81.2302   10.5141 C.ar    1  UNL1       -0.0000
      3 C          62.5882   81.3365   11.5948 C.ar    1  UNL1       -0.0003
      4 C          62.3729   82.6421   12.3013 C.ar    1  UNL1       -0.0029
      5 C          63.1923   83.8414   11.9271 C.ar    1  UNL1       -0.0061
      6 C          64.2271   83.7351   10.8464 C.ar    1  UNL1       -0.0029
      7 C          64.4424   82.4295   10.1399 C.ar    1  UNL1       -0.0003
      8 N          63.0448   85.2098   14.1306 N.3     1  UNL1       -0.2690
      9 C          61.9054   84.9671   15.0758 C.3     1  UNL1        0.0724
     10 C          62.4202   85.1335   16.4748 C.3     1  UNL1        0.0188
     11 C          63.8777   85.4791   16.3944 C.3     1  UNL1        0.0188
     12 C          64.2637   85.5262   14.9456 C.3     1  UNL1        0.0724
     13 C          62.6940   86.3898   11.8428 C.3     1  UNL1        0.0991
     14 C          61.9970   86.2935   10.5181 C.ar    1  UNL1       -0.0061
     15 C          60.5909   86.7953   10.3722 C.ar    1  UNL1       -0.0029
     16 C          59.8939   86.6989    9.0474 C.ar    1  UNL1       -0.0003
     17 C          60.6031   86.1009    7.8686 C.ar    1  UNL1       -0.0000
     18 C          62.0091   85.5992    8.0146 C.ar    1  UNL1       -0.0003
     19 C          62.7061   85.6955    9.3393 C.ar    1  UNL1       -0.0029
     20 N          63.1080   87.7291   12.3769 N.3     1  UNL1       -0.2690
     21 C          63.9336   87.9715   13.6055 C.3     1  UNL1        0.0724
     22 C          64.1048   89.4532   13.7640 C.3     1  UNL1        0.0188
     23 C          63.3850   90.1266   12.6333 C.3     1  UNL1        0.0188
     24 C          62.7689   89.0610   11.7760 C.3     1  UNL1        0.0724
@<TRIPOS>BOND
     1     2     3   ar
     2     3     4   ar
     3     4     5   ar
     4     5     1    1
     5     1    13    1
     6    13    14    1
     7    14    15   ar
     8    15    16   ar
     9    16    17   ar
    10    17    18   ar
    11    18    19   ar
    12    13    20    1
    13    20    21    1
    14    21    22    1
    15    22    23    1
    16    23    24    1
    17     1     8    1
    18     8     9    1
    19     9    10    1
    20    10    11    1
    21    11    12    1
    22     5     6   ar
    23     6     7   ar
    24     7     2   ar
    25    19    14   ar
    26    24    20    1
    27    12     8    1
@<TRIPOS>MOLECULE
*****
 24 27 0 0 0
SMALL
GASTEIGER

@<TRIPOS>ATOM
      1 C          62.6943   86.3829   11.8316 C.3     1  UNL1        0.0991
      2 C          60.6119   86.0881    7.8533 C.ar    1  UNL1       -0.0000
      3 C          62.0189   85.5898    8.0021 C.ar    1  UNL1       -0.0003
      4 C          62.7130   85.6881    9.3282 C.ar    1  UNL1       -0.0029
      5 C          62.0002   86.2846   10.5055 C.ar    1  UNL1       -0.0061
      6 C          60.5932   86.7829   10.3566 C.ar    1  UNL1       -0.0029
      7 C          59.8991   86.6847    9.0305 C.ar    1  UNL1       -0.0003
      8 N          63.1022   87.7233   12.3671 N.3     1  UNL1       -0.2690
      9 C          62.7534   89.0546   11.7703 C.3     1  UNL1        0.0724
     10 C          63.3661   90.1219   12.6278 C.3     1  UNL1        0.0188
     11 C          64.0937   89.4503   13.7546 C.3     1  UNL1        0.0188
     12 C          63.9306   87.9679   13.5935 C.3     1  UNL1        0.0724
     13 C          62.9805   85.1407   12.6222 C.3     1  UNL1        0.0991
     14 C          63.1954   83.8350   11.9158 C.ar    1  UNL1       -0.0061
     15 C          62.3737   82.6366   12.2884 C.ar    1  UNL1       -0.0029
     16 C          62.5887   81.3309   11.5820 C.ar    1  UNL1       -0.0003
     17 C          63.6253   81.2236   10.5031 C.ar    1  UNL1       -0.0000
     18 C          64.4470   82.4219   10.1307 C.ar    1  UNL1       -0.0003
     19 C          64.2320   83.7277   10.8370 C.ar    1  UNL1       -0.0029
     20 N          63.0517   85.2042   14.1192 N.3     1  UNL1       -0.2690
     21 C          64.2721   85.5229   14.9311 C.3     1  UNL1        0.0724
     22 C          63.8897   85.4758   16.3807 C.3     1  UNL1        0.0188
     23 C          62.4329   85.1280   16.4648 C.3     1  UNL1        0.0188
     24 C          61.9151   84.9602   15.0671 C.3     1  UNL1        0.0724
@<TRIPOS>BOND
     1     2     3   ar
     2     3     4   ar
     3     4     5   ar
     4     5     1    1
     5     1    13    1
     6    13    14    1
     7    14    15   ar
     8    15    16   ar
     9    16    17   ar
    10    17    18   ar
    11    18    19   ar
    12    13    20    1
    13    20    21    1
    14    21    22    1
    15    22    23    1
    16    23    24    1
    17     1     8    1
    18     8     9    1
    19     9    10    1
    20    10    11    1
    21    11    12    1
    22     5     6   ar
    23     6     7   ar
    24     7     2   ar
    25    19    14   ar
    26    24    20    1
    27    12     8    1
@<TRIPOS>MOLECULE
*****
 24 27 0 0 0
SMALL
GASTEIGER

@<TRIPOS>ATOM
      1 C          62.5977   86.6740   11.6706 C.3     1  UNL1        0.0991
      2 C          60.2620   90.2125   10.1629 C.ar    1  UNL1       -0.0000
      3 C          59.5940   89.1877   11.0309 C.ar    1  UNL1       -0.0003
      4 C          60.3726   88.0082   11.5335 C.ar    1  UNL1       -0.0029
      5 C          61.8191   87.8535   11.1680 C.ar    1  UNL1       -0.0061
      6 C          62.4871   88.8783   10.3000 C.ar    1  UNL1       -0.0029
      7 C          61.7085   90.0579    9.7974 C.ar    1  UNL1       -0.0003
      8 N          63.3632   86.7735   12.9567 N.3     1  UNL1       -0.2690
      9 C          63.8677   88.0378   13.5869 C.3     1  UNL1        0.0724
     10 C          64.5750   87.6719   14.8581 C.3     1  UNL1        0.0188
     11 C          64.5077   86.1815   15.0136 C.3     1  UNL1        0.0188
     12 C          63.7587   85.6262   13.8384 C.3     1  UNL1        0.0724
     13 C          62.6107   85.3950   10.8871 C.3     1  UNL1        0.0991
     14 C          62.1431   85.3837    9.4619 C.ar    1  UNL1       -0.0061
     15 C          60.7739   85.8907    9.1178 C.ar    1  UNL1       -0.0029
     16 C          60.3062   85.8794    7.6926 C.ar    1  UNL1       -0.0003
     17 C          61.2078   85.3610    6.6115 C.ar    1  UNL1       -0.0000
     18 C          62.5769   84.8541    6.9557 C.ar    1  UNL1       -0.0003
     19 C          63.0445   84.8654    8.3809 C.ar    1  UNL1       -0.0029
     20 N          63.0914   84.1272   11.5288 N.3     1  UNL1       -0.2690
     21 C          64.4400   83.4989   11.3382 C.3     1  UNL1        0.0724
     22 C          64.4900   82.2486   12.1654 C.3     1  UNL1        0.0188
     23 C          63.1721   82.1041   12.8672 C.3     1  UNL1        0.0188
     24 C          62.3078   83.2652   12.4738 C.3     1  UNL1        0.0724
@<TRIPOS>BOND
     1     2     3   ar
     2     3     4   ar
     3     4     5   ar
     4     5     1    1
     5     1    13    1
     6    13    14    1
     7    14    15   ar
     8    15    16   ar
     9    16    17   ar
    10    17    18   ar
    11    18    19   ar
    12    13    20    1
    13    20    21    1
    14    21    22    1
    15    22    23    1
    16    23    24    1
    17     1     8    1
    18     8     9    1
    19     9    10    1
    20    10    11    1
    21    11    12    1
    22     5     6   ar
    23     6     7   ar
    24     7     2   ar
    25    19    14   ar
    26    24    20    1
    27    12     8    1
@<TRIPOS>MOLECULE
*****
 24 27 0 0 0
SMALL
GASTEIGER

@<TRIPOS>ATOM
      1 C          65.4263   91.3620   13.8216 C.3     1  UNL1        0.0991
      2 C          69.1732   93.1996   15.5050 C.ar    1  UNL1       -0.0000
      3 C          67.8458   93.4862   16.1419 C.ar    1  UNL1       -0.0003
      4 C          66.5968   92.8737   15.5808 C.ar    1  UNL1       -0.0029
      5 C          66.6753   91.9745   14.3827 C.ar    1  UNL1       -0.0061
      6 C          68.0027   91.6879   13.7458 C.ar    1  UNL1       -0.0029
      7 C          69.2517   92.3005   14.3069 C.ar    1  UNL1       -0.0003
      8 N          64.6480   90.3691   14.6329 N.3     1  UNL1       -0.2690
      9 C          63.7454   90.6882   15.7878 C.3     1  UNL1        0.0724
     10 C          63.1752   89.3991   16.3005 C.3     1  UNL1        0.0188
     11 C          63.7253   88.2831   15.4625 C.3     1  UNL1        0.0188
     12 C          64.6356   88.8826   14.4319 C.3     1  UNL1        0.0724
     13 C          64.9556   91.7424   12.4491 C.3     1  UNL1        0.0991
     14 C          63.7008   91.1380   11.8922 C.ar    1  UNL1       -0.0061
     15 C          62.6551   90.5933   12.8196 C.ar    1  UNL1       -0.0029
     16 C          61.4003   89.9889   12.2627 C.ar    1  UNL1       -0.0003
     17 C          61.1911   89.9293   10.7785 C.ar    1  UNL1       -0.0000
     18 C          62.2367   90.4740    9.8513 C.ar    1  UNL1       -0.0003
     19 C          63.4916   91.0784   10.4081 C.ar    1  UNL1       -0.0029
     20 N          65.7398   92.7272   11.6334 N.3     1  UNL1       -0.2690
     21 C          66.6402   92.3978   10.4798 C.3     1  UNL1        0.0724
     22 C          67.2181   93.6814    9.9616 C.3     1  UNL1        0.0188
     23 C          66.6748   94.8041   10.7950 C.3     1  UNL1        0.0188
     24 C          65.7612   94.2144   11.8282 C.3     1  UNL1        0.0724
@<TRIPOS>BOND
     1     2     3   ar
     2     3     4   ar
     3     4     5   ar
     4     5     1    1
     5     1    13    1
     6    13    14    1
     7    14    15   ar
     8    15    16   ar
     9    16    17   ar
    10    17    18   ar
    11    18    19   ar
    12    13    20    1
    13    20    21    1
    14    21    22    1
    15    22    23    1
    16    23    24    1
    17     1     8    1
    18     8     9    1
    19     9    10    1
    20    10    11    1
    21    11    12    1
    22     5     6   ar
    23     6     7   ar
    24     7     2   ar
    25    19    14   ar
    26    24    20    1
    27    12     8    1
