@<TRIPOS>MOLECULE
*****
 22 25 0 0 0
SMALL
GASTEIGER

@<TRIPOS>ATOM
      1 O          63.9003   85.9145   13.7245 O.2     1  UNL1       -0.2448
      2 C          63.0109   85.4800   12.5975 C.2     1  UNL1        0.3428
      3 C          63.1655   84.1107   12.0051 C.2     1  UNL1        0.0980
      4 C          63.7649   83.7912   10.6677 C.2     1  UNL1        0.1050
      5 N          63.7177   82.3035   10.4822 N.2     1  UNL1       -0.2475
      6 C          63.0891   81.7035   11.7048 C.2     1  UNL1        0.0658
      7 C          62.7834   80.2845   12.0827 C.3     1  UNL1        0.0719
      8 C          62.1365   79.9824   13.4018 C.2     1  UNL1       -0.0175
      9 C          61.7952   81.0993   14.3431 C.2     1  UNL1        0.0255
     10 C          62.1009   82.5184   13.9652 C.2     1  UNL1        0.1412
     11 F          61.7596   83.6353   14.9065 F       1  UNL1       -0.2041
     12 C          62.7479   82.8205   12.6461 C.2     1  UNL1        0.0491
     13 O          61.9668   86.4151   12.0629 O.3     1  UNL1       -0.4454
     14 C          62.1867   87.1159   10.7550 C.3     1  UNL1        0.2087
     15 C          61.4058   86.7034    9.5426 C.3     1  UNL1        0.0445
     16 C          62.0374   85.8187    8.5089 C.3     1  UNL1        0.0210
     17 C          61.2564   85.4062    7.2965 C.3     1  UNL1        0.0722
     18 N          59.8439   85.8783    7.1177 N.3     1  UNL1       -0.2727
     19 C          59.2123   86.7629    8.1514 C.3     1  UNL1        0.0722
     20 C          59.9933   87.1755    9.3639 C.3     1  UNL1        0.0210
     21 C          60.2321   86.1306    7.7986 C.3     1  UNL1        0.0722
     22 C          60.9382   86.5037    8.8949 C.3     1  UNL1        0.0210
@<TRIPOS>BOND
     1     1     2    2
     2     2    13    1
     3    13    14    1
     4    14    15    1
     5    15    16    1
     6    16    17    1
     7    17    18    1
     8    18    19    1
     9    19    20    1
    10    18    21    1
    11    21    22    1
    12     2     3    1
    13     3     4    2
    14     4     5    1
    15     5     6    2
    16     6     7    1
    17     7     8    1
    18     8     9    2
    19     9    10    1
    20    10    11    1
    21    10    12    2
    22    20    15    1
    23    12     3    1
    24    22    15    1
    25    12     6    1
@<TRIPOS>MOLECULE
*****
 22 25 0 0 0
SMALL
GASTEIGER

@<TRIPOS>ATOM
      1 O          60.8027   89.6367   12.5318 O.2     1  UNL1       -0.2448
      2 C          62.2220   89.5266   12.0594 C.2     1  UNL1        0.3428
      3 C          63.3193   90.2174   12.8136 C.2     1  UNL1        0.0980
      4 C          63.7029   89.9638   14.2413 C.2     1  UNL1        0.1050
      5 N          64.8463   90.8728   14.5825 N.2     1  UNL1       -0.2475
      6 C          65.1693   91.6882   13.3656 C.2     1  UNL1        0.0658
      7 C          66.2009   92.7471   13.1118 C.3     1  UNL1        0.0719
      8 C          66.2887   93.4010   11.7647 C.2     1  UNL1       -0.0175
      9 C          65.3449   92.9960   10.6715 C.2     1  UNL1        0.0255
     10 C          64.3134   91.9370   10.9253 C.2     1  UNL1        0.1412
     11 F          63.3696   91.5319    9.8320 F       1  UNL1       -0.2041
     12 C          64.2255   91.2831   12.2723 C.2     1  UNL1        0.0491
     13 O          62.5442   88.7255   10.8327 O.3     1  UNL1       -0.4454
     14 C          62.1540   87.2791   10.7577 C.3     1  UNL1        0.2087
     15 C          61.4687   86.7498    9.5329 C.3     1  UNL1        0.0445
     16 C          62.2052   85.8393    8.5956 C.3     1  UNL1        0.0210
     17 C          61.5198   85.3101    7.3709 C.3     1  UNL1        0.0722
     18 N          60.0978   85.6912    7.0833 N.3     1  UNL1       -0.2727
     19 C          59.3612   86.6017    8.0206 C.3     1  UNL1        0.0722
     20 C          60.0467   87.1310    9.2455 C.3     1  UNL1        0.0210
     21 C          60.4315   86.0063    7.7670 C.3     1  UNL1        0.0722
     22 C          61.0511   86.4849    8.8745 C.3     1  UNL1        0.0210
@<TRIPOS>BOND
     1     1     2    2
     2     2    13    1
     3    13    14    1
     4    14    15    1
     5    15    16    1
     6    16    17    1
     7    17    18    1
     8    18    19    1
     9    19    20    1
    10    18    21    1
    11    21    22    1
    12     2     3    1
    13     3     4    2
    14     4     5    1
    15     5     6    2
    16     6     7    1
    17     7     8    1
    18     8     9    2
    19     9    10    1
    20    10    11    1
    21    10    12    2
    22    20    15    1
    23    12     3    1
    24    22    15    1
    25    12     6    1
@<TRIPOS>MOLECULE
*****
 22 25 0 0 0
SMALL
GASTEIGER

@<TRIPOS>ATOM
      1 O          60.7962   89.4587   12.3121 O.2     1  UNL1       -0.2448
      2 C          62.2228   89.1949   11.9314 C.2     1  UNL1        0.3428
      3 C          63.1489   90.3414   11.6525 C.2     1  UNL1        0.0980
      4 C          63.1972   91.1487   10.3892 C.2     1  UNL1        0.1050
      5 N          64.2675   92.1881   10.5440 N.2     1  UNL1       -0.2475
      6 C          64.8808   92.0232   11.9029 C.2     1  UNL1        0.0658
      7 C          65.9794   92.7649   12.6050 C.3     1  UNL1        0.0719
      8 C          66.3866   92.3653   13.9922 C.2     1  UNL1       -0.0175
      9 C          65.6952   91.2240   14.6774 C.2     1  UNL1        0.0255
     10 C          64.5966   90.4823   13.9753 C.2     1  UNL1        0.1412
     11 F          63.9053   89.3409   14.6604 F       1  UNL1       -0.2041
     12 C          64.1894   90.8819   12.5881 C.2     1  UNL1        0.0491
     13 O          62.7233   87.7845   11.8294 O.3     1  UNL1       -0.4454
     14 C          61.7823   86.6805   11.4476 C.3     1  UNL1        0.2087
     15 C          61.6311   86.2885   10.0077 C.3     1  UNL1        0.0445
     16 C          62.7194   85.5167    9.3221 C.3     1  UNL1        0.0210
     17 C          62.5680   85.1248    7.8822 C.3     1  UNL1        0.0722
     18 N          61.3284   85.5046    7.1277 N.3     1  UNL1       -0.2727
     19 C          60.2401   86.2764    7.8132 C.3     1  UNL1        0.0722
     20 C          60.3915   86.6684    9.2533 C.3     1  UNL1        0.0210
     21 C          61.3662   85.7417    7.9153 C.3     1  UNL1        0.0722
     22 C          61.5029   86.0962    9.2174 C.3     1  UNL1        0.0210
@<TRIPOS>BOND
     1     1     2    2
     2     2    13    1
     3    13    14    1
     4    14    15    1
     5    15    16    1
     6    16    17    1
     7    17    18    1
     8    18    19    1
     9    19    20    1
    10    18    21    1
    11    21    22    1
    12     2     3    1
    13     3     4    2
    14     4     5    1
    15     5     6    2
    16     6     7    1
    17     7     8    1
    18     8     9    2
    19     9    10    1
    20    10    11    1
    21    10    12    2
    22    20    15    1
    23    12     3    1
    24    22    15    1
    25    12     6    1
@<TRIPOS>MOLECULE
*****
 22 25 0 0 0
SMALL
GASTEIGER

@<TRIPOS>ATOM
      1 O          64.2068   85.7376   13.7532 O.2     1  UNL1       -0.2448
      2 C          63.2305   85.3216   12.6932 C.2     1  UNL1        0.3428
      3 C          63.3461   83.9685   12.0563 C.2     1  UNL1        0.0980
      4 C          63.9869   83.6684   10.7337 C.2     1  UNL1        0.1050
      5 N          63.8781   82.1923   10.4902 N.2     1  UNL1       -0.2475
      6 C          63.1700   81.5801   11.6622 C.2     1  UNL1        0.0658
      7 C          62.7821   80.1649   11.9732 C.3     1  UNL1        0.0719
      8 C          62.0655   79.8474   13.2521 C.2     1  UNL1       -0.0175
      9 C          61.7367   80.9452   14.2200 C.2     1  UNL1        0.0255
     10 C          62.1246   82.3604   13.9091 C.2     1  UNL1        0.1412
     11 F          61.7958   83.4581   14.8770 F       1  UNL1       -0.2041
     12 C          62.8412   82.6778   12.6302 C.2     1  UNL1        0.0491
     13 O          62.1383   86.2589   12.2701 O.3     1  UNL1       -0.4454
     14 C          62.3964   87.2762   11.1985 C.3     1  UNL1        0.2087
     15 C          61.4287   87.4313   10.0629 C.3     1  UNL1        0.0445
     16 C          61.0588   88.8004    9.5743 C.3     1  UNL1        0.0210
     17 C          60.0911   88.9553    8.4388 C.3     1  UNL1        0.0722
     18 N          59.4933   87.7412    7.7918 N.3     1  UNL1       -0.2727
     19 C          59.8631   86.3722    8.2804 C.3     1  UNL1        0.0722
     20 C          60.8309   86.2172    9.4160 C.3     1  UNL1        0.0210
     21 C          60.0191   87.6062    8.4109 C.3     1  UNL1        0.0722
     22 C          60.8941   87.4660    9.4377 C.3     1  UNL1        0.0210
@<TRIPOS>BOND
     1     1     2    2
     2     2    13    1
     3    13    14    1
     4    14    15    1
     5    15    16    1
     6    16    17    1
     7    17    18    1
     8    18    19    1
     9    19    20    1
    10    18    21    1
    11    21    22    1
    12     2     3    1
    13     3     4    2
    14     4     5    1
    15     5     6    2
    16     6     7    1
    17     7     8    1
    18     8     9    2
    19     9    10    1
    20    10    11    1
    21    10    12    2
    22    20    15    1
    23    12     3    1
    24    22    15    1
    25    12     6    1
@<TRIPOS>MOLECULE
*****
 22 25 0 0 0
SMALL
GASTEIGER

@<TRIPOS>ATOM
      1 O          60.3081   87.5389   11.4501 O.2     1  UNL1       -0.2448
      2 C          61.7928   87.3597   11.3342 C.2     1  UNL1        0.3428
      3 C          62.3510   86.2465   10.4980 C.2     1  UNL1        0.0980
      4 C          62.3680   86.1930    8.9990 C.2     1  UNL1        0.1050
      5 N          63.0177   84.9048    8.5886 N.2     1  UNL1       -0.2475
      6 C          63.4021   84.1621    9.8338 C.2     1  UNL1        0.0658
      7 C          64.0742   82.8379   10.0456 C.3     1  UNL1        0.0719
      8 C          64.3342   82.3430   11.4375 C.2     1  UNL1       -0.0175
      9 C          63.9221   83.1723   12.6176 C.2     1  UNL1        0.0255
     10 C          63.2501   84.4964   12.4058 C.2     1  UNL1        0.1412
     11 F          62.8380   85.3256   13.5859 F       1  UNL1       -0.2041
     12 C          62.9901   84.9913   11.0139 C.2     1  UNL1        0.0491
     13 O          62.7195   88.2938   12.0546 O.3     1  UNL1       -0.4454
     14 C          62.4266   89.7646   12.0859 C.3     1  UNL1        0.2087
     15 C          63.5541   90.7530   12.1266 C.3     1  UNL1        0.0445
     16 C          64.2938   90.9948   13.4089 C.3     1  UNL1        0.0210
     17 C          65.4213   91.9832   13.4495 C.3     1  UNL1        0.0722
     18 N          65.8092   92.7299   12.2077 N.3     1  UNL1       -0.2727
     19 C          65.0696   92.4882   10.9254 C.3     1  UNL1        0.0722
     20 C          63.9420   91.4996   10.8848 C.3     1  UNL1        0.0210
     21 C          65.1846   92.1981   12.1365 C.3     1  UNL1        0.0722
     22 C          64.1651   91.3044   12.0997 C.3     1  UNL1        0.0210
@<TRIPOS>BOND
     1     1     2    2
     2     2    13    1
     3    13    14    1
     4    14    15    1
     5    15    16    1
     6    16    17    1
     7    17    18    1
     8    18    19    1
     9    19    20    1
    10    18    21    1
    11    21    22    1
    12     2     3    1
    13     3     4    2
    14     4     5    1
    15     5     6    2
    16     6     7    1
    17     7     8    1
    18     8     9    2
    19     9    10    1
    20    10    11    1
    21    10    12    2
    22    20    15    1
    23    12     3    1
    24    22    15    1
    25    12     6    1
@<TRIPOS>MOLECULE
*****
 22 25 0 0 0
SMALL
GASTEIGER

@<TRIPOS>ATOM
      1 O          63.2737   88.5501   16.2926 O.2     1  UNL1       -0.2448
      2 C          63.9270   88.4745   14.9446 C.2     1  UNL1        0.3428
      3 C          64.2245   89.7325   14.1837 C.2     1  UNL1        0.0980
      4 C          65.0133   90.9036   14.6900 C.2     1  UNL1        0.1050
      5 N          65.0616   91.9351   13.6020 N.2     1  UNL1       -0.2475
      6 C          64.3027   91.4015   12.4233 C.2     1  UNL1        0.0658
      7 C          64.0160   91.9793   11.0691 C.3     1  UNL1        0.0719
      8 C          63.2118   91.1959   10.0744 C.2     1  UNL1       -0.0175
      9 C          62.6944   89.8346   10.4339 C.2     1  UNL1        0.0255
     10 C          62.9811   89.2568   11.7881 C.2     1  UNL1        0.1412
     11 F          62.4637   87.8955   12.1475 F       1  UNL1       -0.2041
     12 C          63.7853   90.0402   12.7828 C.2     1  UNL1        0.0491
     13 O          64.2829   87.1408   14.3574 O.3     1  UNL1       -0.4454
     14 C          64.2176   85.9060   15.2064 C.3     1  UNL1        0.2087
     15 C          63.8229   84.5948   14.5941 C.3     1  UNL1        0.0445
     16 C          64.6152   84.0320   13.4515 C.3     1  UNL1        0.0210
     17 C          64.2205   82.7208   12.8391 C.3     1  UNL1        0.0722
     18 N          63.0335   81.9724   13.3694 N.3     1  UNL1       -0.2727
     19 C          62.2413   82.5352   14.5120 C.3     1  UNL1        0.0722
     20 C          62.6360   83.8465   15.1243 C.3     1  UNL1        0.0210
     21 C          63.2114   82.6872   13.7373 C.3     1  UNL1        0.0722
     22 C          63.5682   83.8728   14.2911 C.3     1  UNL1        0.0210
@<TRIPOS>BOND
     1     1     2    2
     2     2    13    1
     3    13    14    1
     4    14    15    1
     5    15    16    1
     6    16    17    1
     7    17    18    1
     8    18    19    1
     9    19    20    1
    10    18    21    1
    11    21    22    1
    12     2     3    1
    13     3     4    2
    14     4     5    1
    15     5     6    2
    16     6     7    1
    17     7     8    1
    18     8     9    2
    19     9    10    1
    20    10    11    1
    21    10    12    2
    22    20    15    1
    23    12     3    1
    24    22    15    1
    25    12     6    1
@<TRIPOS>MOLECULE
*****
 22 25 0 0 0
SMALL
GASTEIGER

@<TRIPOS>ATOM
      1 O          60.7217   89.6445   12.5478 O.2     1  UNL1       -0.2448
      2 C          61.9019   89.0397   11.8470 C.2     1  UNL1        0.3428
      3 C          61.7207   87.8271   10.9829 C.2     1  UNL1        0.0980
      4 C          62.3342   86.4784   11.2164 C.2     1  UNL1        0.1050
      5 N          61.8868   85.5681   10.1114 N.2     1  UNL1       -0.2475
      6 C          60.9967   86.3542    9.1949 C.2     1  UNL1        0.0658
      7 C          60.2665   85.9791    7.9395 C.3     1  UNL1        0.0719
      8 C          59.4336   87.0001    7.2228 C.2     1  UNL1       -0.0175
      9 C          59.3310   88.3963    7.7615 C.2     1  UNL1        0.0255
     10 C          60.0612   88.7714    9.0168 C.2     1  UNL1        0.1412
     11 F          59.9585   90.1676    9.5555 F       1  UNL1       -0.2041
     12 C          60.8941   87.7504    9.7336 C.2     1  UNL1        0.0491
     13 O          63.2635   89.6476   12.0104 O.3     1  UNL1       -0.4454
     14 C          63.4387   90.8818   12.8447 C.3     1  UNL1        0.2087
     15 C          64.8091   91.4511   13.0630 C.3     1  UNL1        0.0445
     16 C          65.5984   91.0616   14.2777 C.3     1  UNL1        0.0210
     17 C          66.9689   91.6309   14.4959 C.3     1  UNL1        0.0722
     18 N          67.5501   92.5899   13.4996 N.3     1  UNL1       -0.2727
     19 C          66.7609   92.9794   12.2850 C.3     1  UNL1        0.0722
     20 C          65.3903   92.4100   12.0667 C.3     1  UNL1        0.0210
     21 C          66.7952   92.3041   13.3371 C.3     1  UNL1        0.0722
     22 C          65.5560   91.7893   13.1396 C.3     1  UNL1        0.0210
@<TRIPOS>BOND
     1     1     2    2
     2     2    13    1
     3    13    14    1
     4    14    15    1
     5    15    16    1
     6    16    17    1
     7    17    18    1
     8    18    19    1
     9    19    20    1
    10    18    21    1
    11    21    22    1
    12     2     3    1
    13     3     4    2
    14     4     5    1
    15     5     6    2
    16     6     7    1
    17     7     8    1
    18     8     9    2
    19     9    10    1
    20    10    11    1
    21    10    12    2
    22    20    15    1
    23    12     3    1
    24    22    15    1
    25    12     6    1
@<TRIPOS>MOLECULE
*****
 22 25 0 0 0
SMALL
GASTEIGER

@<TRIPOS>ATOM
      1 O          62.4862   86.3626   12.3656 O.2     1  UNL1       -0.2448
      2 C          63.4920   85.3419   12.8085 C.2     1  UNL1        0.3428
      3 C          63.5158   83.9854   12.1686 C.2     1  UNL1        0.0980
      4 C          64.1219   83.6485   10.8386 C.2     1  UNL1        0.1050
      5 N          63.9183   82.1826   10.5944 N.2     1  UNL1       -0.2475
      6 C          63.1863   81.6135   11.7736 C.2     1  UNL1        0.0658
      7 C          62.7142   80.2247   12.0871 C.3     1  UNL1        0.0719
      8 C          61.9933   79.9501   13.3735 C.2     1  UNL1       -0.0175
      9 C          61.7446   81.0644   14.3464 C.2     1  UNL1        0.0255
     10 C          62.2167   82.4532   14.0329 C.2     1  UNL1        0.1412
     11 F          61.9679   83.5674   15.0059 F       1  UNL1       -0.2041
     12 C          62.9376   82.7277   12.7465 C.2     1  UNL1        0.0491
     13 O          64.4742   85.6776   13.8915 O.3     1  UNL1       -0.4454
     14 C          63.9915   86.2546   15.1893 C.3     1  UNL1        0.2087
     15 C          63.8720   87.7411   15.3507 C.3     1  UNL1        0.0445
     16 C          64.3839   88.6556   14.2775 C.3     1  UNL1        0.0210
     17 C          64.2644   90.1421   14.4390 C.3     1  UNL1        0.0722
     18 N          63.6330   90.7141   15.6736 N.3     1  UNL1       -0.2727
     19 C          63.1211   89.7996   16.7467 C.3     1  UNL1        0.0722
     20 C          63.2406   88.3130   16.5852 C.3     1  UNL1        0.0210
     21 C          63.6763   89.8930   15.6299 C.3     1  UNL1        0.0722
     22 C          63.7843   88.5489   15.4840 C.3     1  UNL1        0.0210
@<TRIPOS>BOND
     1     1     2    2
     2     2    13    1
     3    13    14    1
     4    14    15    1
     5    15    16    1
     6    16    17    1
     7    17    18    1
     8    18    19    1
     9    19    20    1
    10    18    21    1
    11    21    22    1
    12     2     3    1
    13     3     4    2
    14     4     5    1
    15     5     6    2
    16     6     7    1
    17     7     8    1
    18     8     9    2
    19     9    10    1
    20    10    11    1
    21    10    12    2
    22    20    15    1
    23    12     3    1
    24    22    15    1
    25    12     6    1
@<TRIPOS>MOLECULE
*****
 22 25 0 0 0
SMALL
GASTEIGER

@<TRIPOS>ATOM
      1 O          60.4872   86.0311    8.7195 O.2     1  UNL1       -0.2448
      2 C          61.5100   86.6594    9.6189 C.2     1  UNL1        0.3428
      3 C          61.9891   85.9266   10.8368 C.2     1  UNL1        0.0980
      4 C          61.6779   86.2839   12.2600 C.2     1  UNL1        0.1050
      5 N          62.3601   85.2860   13.1482 N.2     1  UNL1       -0.2475
      6 C          63.0929   84.3120   12.2739 C.2     1  UNL1        0.0658
      7 C          63.9393   83.1157   12.5940 C.3     1  UNL1        0.0719
      8 C          64.5564   82.3154   11.4856 C.2     1  UNL1       -0.0175
      9 C          64.3272   82.7114   10.0571 C.2     1  UNL1        0.0255
     10 C          63.4808   83.9076    9.7370 C.2     1  UNL1        0.1412
     11 F          63.2515   84.3036    8.3085 F       1  UNL1       -0.2041
     12 C          62.8636   84.7079   10.8454 C.2     1  UNL1        0.0491
     13 O          62.0538   88.0206    9.3002 O.3     1  UNL1       -0.4454
     14 C          61.5922   89.2146   10.0821 C.3     1  UNL1        0.2087
     15 C          62.5855   90.0440   10.8406 C.3     1  UNL1        0.0445
     16 C          63.2868   91.1823   10.1607 C.3     1  UNL1        0.0210
     17 C          64.2801   92.0117   10.9193 C.3     1  UNL1        0.0722
     18 N          64.5721   91.7029   12.3578 N.3     1  UNL1       -0.2727
     19 C          63.8707   90.5646   13.0378 C.3     1  UNL1        0.0722
     20 C          62.8774   89.7351   12.2792 C.3     1  UNL1        0.0210
     21 C          64.0199   91.2204   11.9833 C.3     1  UNL1        0.0722
     22 C          63.1217   90.4703   11.2974 C.3     1  UNL1        0.0210
@<TRIPOS>BOND
     1     1     2    2
     2     2    13    1
     3    13    14    1
     4    14    15    1
     5    15    16    1
     6    16    17    1
     7    17    18    1
     8    18    19    1
     9    19    20    1
    10    18    21    1
    11    21    22    1
    12     2     3    1
    13     3     4    2
    14     4     5    1
    15     5     6    2
    16     6     7    1
    17     7     8    1
    18     8     9    2
    19     9    10    1
    20    10    11    1
    21    10    12    2
    22    20    15    1
    23    12     3    1
    24    22    15    1
    25    12     6    1
