@<TRIPOS>MOLECULE
*****
 36 41 0 0 0
SMALL
GASTEIGER

@<TRIPOS>ATOM
      1 C          64.0738   89.2571   14.0408 C.ar    1  UNL1        0.1405
      2 N          63.1885   89.3774   12.8358 N.ar    1  UNL1       -0.2290
      3 C          62.8773   87.9930   12.3493 C.ar    1  UNL1        0.1052
      4 C          63.5702   87.0172   13.2535 C.ar    1  UNL1        0.1328
      5 C          63.6233   85.5181   13.2600 C.ar    1  UNL1        0.1466
      6 N          62.8838   84.7369   12.2146 N.pl3   1  UNL1       -0.3413
      7 N          64.4159   84.8003   14.3118 N.ar    1  UNL1       -0.2064
      8 C          65.1554   85.5816   15.3573 C.ar    1  UNL1        0.2211
      9 N          65.1023   87.0805   15.3508 N.ar    1  UNL1       -0.1411
     10 N          64.3097   87.7984   14.2989 N.ar    1  UNL1       -0.2104
     11 H          62.3636   85.2081   11.5242 H       1  UNL1        0.1438
     12 H          62.9187   83.7530   12.2188 H       1  UNL1        0.1438
     13 C          62.0231   87.6456   11.1662 C.ar    1  UNL1        0.0482
     14 C          61.5892   86.2268   10.9452 C.ar    1  UNL1        0.0039
     15 C          60.7351   85.8793    9.7622 C.ar    1  UNL1        0.0017
     16 C          60.3147   86.9506    8.8000 C.ar    1  UNL1        0.0199
     17 C          59.4605   86.6031    7.6170 C.ar    1  UNL1        0.0031
     18 C          59.0402   87.6744    6.6549 C.ar    1  UNL1        0.0191
     19 C          59.4741   89.0932    6.8759 C.ar    1  UNL1        0.0813
     20 N          60.3283   89.4407    8.0589 N.ar    1  UNL1       -0.2431
     21 C          60.7486   88.3694    9.0210 C.ar    1  UNL1        0.1086
     22 C          61.6028   88.7169   10.2041 C.ar    1  UNL1        0.1590
     23 F          62.0366   90.1356   10.4251 F       1  UNL1       -0.2025
     24 C          59.0537   90.1645    5.9138 C.ar    1  UNL1        0.0177
     25 C          60.0888   90.9253    5.1393 C.ar    1  UNL1        0.0015
     26 C          59.6685   91.9966    4.1772 C.ar    1  UNL1        0.0000
     27 C          58.2130   92.3071    3.9895 C.ar    1  UNL1        0.0000
     28 C          57.1779   91.5463    4.7640 C.ar    1  UNL1        0.0000
     29 C          57.5983   90.4750    5.7261 C.ar    1  UNL1        0.0015
     30 C          66.6941   92.7766   15.9882 C.3     1  UNL1        0.0293
     31 C          65.4074   92.0056   15.9852 C.3     1  UNL1        0.0892
     32 O          64.9018   92.8447   17.1212 O.3     1  UNL1       -0.3867
     33 C          64.1207   91.2346   15.9821 C.3     1  UNL1        0.0345
     34 C          64.6262   90.3956   14.8462 C.3     1  UNL1        0.0633
     35 C          65.9128   91.1665   14.8492 C.3     1  UNL1        0.0345
     36 H          65.5773   93.4957   17.3679 H       1  UNL1        0.2102
@<TRIPOS>BOND
     1    31    30    1
     2    31    32    1
     3    31    33    1
     4    33    34    1
     5    34     1    1
     6     1     2   ar
     7     2     3   ar
     8     3    13    1
     9    13    14   ar
    10    14    15   ar
    11    15    16   ar
    12    16    17   ar
    13    17    18   ar
    14    18    19   ar
    15    19    24    1
    16    24    25   ar
    17    25    26   ar
    18    26    27   ar
    19    27    28   ar
    20    28    29   ar
    21    19    20   ar
    22    20    21   ar
    23    21    22   ar
    24    22    23    1
    25     3     4   ar
    26     4     5   ar
    27     5     6    1
    28     5     7   ar
    29     7     8   ar
    30     8     9   ar
    31     9    10   ar
    32    34    35    1
    33    35    31    1
    34    10     1   ar
    35    22    13   ar
    36    10     4   ar
    37    21    16   ar
    38    29    24   ar
    39    32    36    1
    40     6    11    1
    41     6    12    1
@<TRIPOS>MOLECULE
*****
 36 41 0 0 0
SMALL
GASTEIGER

@<TRIPOS>ATOM
      1 C          64.0580   90.7570   12.0755 C.ar    1  UNL1        0.1405
      2 N          64.5198   89.5500   12.8371 N.ar    1  UNL1       -0.2290
      3 C          63.4738   88.4843   12.6952 C.ar    1  UNL1        0.1052
      4 C          62.3655   89.0326   11.8461 C.ar    1  UNL1        0.1328
      5 C          61.0742   88.4343   11.3721 C.ar    1  UNL1        0.1466
      6 N          60.7132   87.0297   11.7551 N.pl3   1  UNL1       -0.3413
      7 N          60.1439   89.2407   10.5151 N.ar    1  UNL1       -0.2064
      8 C          60.5050   90.6453   10.1322 C.ar    1  UNL1        0.2211
      9 N          61.7963   91.2436   10.6061 N.ar    1  UNL1       -0.1411
     10 N          62.7265   90.4372   11.4631 N.ar    1  UNL1       -0.2104
     11 H          61.3238   86.5005   12.3175 H       1  UNL1        0.1438
     12 H          59.8657   86.6370   11.4440 H       1  UNL1        0.1438
     13 C          63.5268   87.1112   13.2969 C.ar    1  UNL1        0.0482
     14 C          63.7870   86.9452   14.7648 C.ar    1  UNL1        0.0039
     15 C          63.8400   85.5723   15.3666 C.ar    1  UNL1        0.0017
     16 C          63.6328   84.3652   14.5004 C.ar    1  UNL1        0.0199
     17 C          63.6858   82.9923   15.1021 C.ar    1  UNL1        0.0031
     18 C          63.4787   81.7853   14.2360 C.ar    1  UNL1        0.0191
     19 C          63.2185   81.9513   12.7681 C.ar    1  UNL1        0.0813
     20 N          63.1655   83.3243   12.1663 N.ar    1  UNL1       -0.2431
     21 C          63.3726   84.5312   13.0325 C.ar    1  UNL1        0.1086
     22 C          63.3196   85.9043   12.4308 C.ar    1  UNL1        0.1590
     23 F          63.0594   86.0703   10.9629 F       1  UNL1       -0.2025
     24 C          63.0113   80.7443   11.9019 C.ar    1  UNL1        0.0177
     25 C          63.1828   80.8494   10.4155 C.ar    1  UNL1        0.0015
     26 C          62.9756   79.6424    9.5493 C.ar    1  UNL1        0.0000
     27 C          62.5970   78.3302   10.1696 C.ar    1  UNL1        0.0000
     28 C          62.4255   78.2251   11.6561 C.ar    1  UNL1        0.0000
     29 C          62.6326   79.4321   12.5222 C.ar    1  UNL1        0.0015
     30 C          66.0603   94.8865   10.6672 C.3     1  UNL1        0.0293
     31 C          65.8438   93.8924   11.7694 C.3     1  UNL1        0.0892
     32 O          66.6734   94.7350   12.6924 O.3     1  UNL1       -0.3867
     33 C          65.6273   92.8983   12.8717 C.3     1  UNL1        0.0345
     34 C          64.7977   92.0558   11.9487 C.3     1  UNL1        0.0633
     35 C          65.0142   93.0498   10.8466 C.3     1  UNL1        0.0345
     36 H          66.9843   95.5228   12.2194 H       1  UNL1        0.2102
@<TRIPOS>BOND
     1    31    30    1
     2    31    32    1
     3    31    33    1
     4    33    34    1
     5    34     1    1
     6     1     2   ar
     7     2     3   ar
     8     3    13    1
     9    13    14   ar
    10    14    15   ar
    11    15    16   ar
    12    16    17   ar
    13    17    18   ar
    14    18    19   ar
    15    19    24    1
    16    24    25   ar
    17    25    26   ar
    18    26    27   ar
    19    27    28   ar
    20    28    29   ar
    21    19    20   ar
    22    20    21   ar
    23    21    22   ar
    24    22    23    1
    25     3     4   ar
    26     4     5   ar
    27     5     6    1
    28     5     7   ar
    29     7     8   ar
    30     8     9   ar
    31     9    10   ar
    32    34    35    1
    33    35    31    1
    34    10     1   ar
    35    22    13   ar
    36    10     4   ar
    37    21    16   ar
    38    29    24   ar
    39    32    36    1
    40     6    11    1
    41     6    12    1
@<TRIPOS>MOLECULE
*****
 36 41 0 0 0
SMALL
GASTEIGER

@<TRIPOS>ATOM
      1 C          65.3833   90.5493   14.2772 C.ar    1  UNL1        0.1405
      2 N          65.2002   89.2314   14.9699 N.ar    1  UNL1       -0.2290
      3 C          64.1690   88.4488   14.2122 C.ar    1  UNL1        0.1052
      4 C          63.7147   89.2829   13.0512 C.ar    1  UNL1        0.1328
      5 C          62.7146   89.0280   11.9627 C.ar    1  UNL1        0.1466
      6 N          61.9642   87.7299   11.9225 N.pl3   1  UNL1       -0.3413
      7 N          62.4650   90.0713   10.9142 N.ar    1  UNL1       -0.2064
      8 C          63.2155   91.3696   10.9544 C.ar    1  UNL1        0.2211
      9 N          64.2155   91.6244   12.0429 N.ar    1  UNL1       -0.1411
     10 N          64.4651   90.5811   13.0913 N.ar    1  UNL1       -0.2104
     11 H          62.1281   87.0451   12.6106 H       1  UNL1        0.1438
     12 H          61.3079   87.5626   11.2081 H       1  UNL1        0.1438
     13 C          63.6783   87.0735   14.5553 C.ar    1  UNL1        0.0482
     14 C          63.1605   86.7839   15.9330 C.ar    1  UNL1        0.0039
     15 C          62.6698   85.4087   16.2761 C.ar    1  UNL1        0.0017
     16 C          62.6968   84.3228   15.2415 C.ar    1  UNL1        0.0199
     17 C          62.2061   82.9476   15.5847 C.ar    1  UNL1        0.0031
     18 C          62.2331   81.8619   14.5501 C.ar    1  UNL1        0.0191
     19 C          62.7509   82.1514   13.1724 C.ar    1  UNL1        0.0813
     20 N          63.2416   83.5266   12.8292 N.ar    1  UNL1       -0.2431
     21 C          63.2146   84.6124   13.8638 C.ar    1  UNL1        0.1086
     22 C          63.7053   85.9877   13.5207 C.ar    1  UNL1        0.1590
     23 F          64.2230   86.2773   12.1430 F       1  UNL1       -0.2025
     24 C          62.7779   81.0656   12.1378 C.ar    1  UNL1        0.0177
     25 C          63.1143   81.3948   10.7136 C.ar    1  UNL1        0.0015
     26 C          63.1413   80.3090    9.6790 C.ar    1  UNL1        0.0000
     27 C          62.8319   78.8939   10.0687 C.ar    1  UNL1        0.0000
     28 C          62.4954   78.5647   11.4929 C.ar    1  UNL1        0.0000
     29 C          62.4684   79.6505   12.5274 C.ar    1  UNL1        0.0015
     30 C          69.0561   93.2425   15.7945 C.3     1  UNL1        0.0293
     31 C          67.6445   93.1904   15.2897 C.3     1  UNL1        0.0892
     32 O          67.5575   94.6853   15.3782 O.3     1  UNL1       -0.3867
     33 C          66.2329   93.1381   14.7850 C.3     1  UNL1        0.0345
     34 C          66.3199   91.6433   14.6966 C.3     1  UNL1        0.0633
     35 C          67.7314   91.6955   15.2013 C.3     1  UNL1        0.0345
     36 H          68.3994   95.0394   15.7050 H       1  UNL1        0.2102
@<TRIPOS>BOND
     1    31    30    1
     2    31    32    1
     3    31    33    1
     4    33    34    1
     5    34     1    1
     6     1     2   ar
     7     2     3   ar
     8     3    13    1
     9    13    14   ar
    10    14    15   ar
    11    15    16   ar
    12    16    17   ar
    13    17    18   ar
    14    18    19   ar
    15    19    24    1
    16    24    25   ar
    17    25    26   ar
    18    26    27   ar
    19    27    28   ar
    20    28    29   ar
    21    19    20   ar
    22    20    21   ar
    23    21    22   ar
    24    22    23    1
    25     3     4   ar
    26     4     5   ar
    27     5     6    1
    28     5     7   ar
    29     7     8   ar
    30     8     9   ar
    31     9    10   ar
    32    34    35    1
    33    35    31    1
    34    10     1   ar
    35    22    13   ar
    36    10     4   ar
    37    21    16   ar
    38    29    24   ar
    39    32    36    1
    40     6    11    1
    41     6    12    1
@<TRIPOS>MOLECULE
*****
 36 41 0 0 0
SMALL
GASTEIGER

@<TRIPOS>ATOM
      1 C          54.4008   95.8036   -4.2635 C.ar    1  UNL1        0.1405
      2 N          55.2558   96.0921   -3.0651 N.ar    1  UNL1       -0.2290
      3 C          56.6431   95.6016   -3.3566 C.ar    1  UNL1        0.1052
      4 C          56.6455   95.0100   -4.7350 C.ar    1  UNL1        0.1328
      5 C          57.7306   94.3737   -5.5523 C.ar    1  UNL1        0.1466
      6 N          59.1163   94.2489   -4.9918 N.pl3   1  UNL1       -0.3413
      7 N          57.4299   93.8623   -6.9299 N.ar    1  UNL1       -0.2064
      8 C          56.0441   93.9872   -7.4904 C.ar    1  UNL1        0.2211
      9 N          54.9591   94.6234   -6.6732 N.ar    1  UNL1       -0.1411
     10 N          55.2598   95.1348   -5.2955 N.ar    1  UNL1       -0.2104
     11 H          59.3137   94.5845   -4.0876 H       1  UNL1        0.1438
     12 H          59.8284   93.8313   -5.5282 H       1  UNL1        0.1438
     13 C          57.8211   95.6876   -2.4320 C.ar    1  UNL1        0.0482
     14 C          58.8432   96.7695   -2.6182 C.ar    1  UNL1        0.0039
     15 C          60.0212   96.8556   -1.6935 C.ar    1  UNL1        0.0017
     16 C          60.1771   95.8597   -0.5827 C.ar    1  UNL1        0.0199
     17 C          61.3550   95.9458    0.3419 C.ar    1  UNL1        0.0031
     18 C          61.5109   94.9499    1.4527 C.ar    1  UNL1        0.0191
     19 C          60.4887   93.8679    1.6389 C.ar    1  UNL1        0.0813
     20 N          59.3108   93.7819    0.7143 N.ar    1  UNL1       -0.2431
     21 C          59.1549   94.7778   -0.3965 C.ar    1  UNL1        0.1086
     22 C          57.9769   94.6917   -1.3212 C.ar    1  UNL1        0.1590
     23 F          56.9548   93.6098   -1.1350 F       1  UNL1       -0.2025
     24 C          60.6446   92.8720    2.7498 C.ar    1  UNL1        0.0177
     25 C          59.4915   92.5817    3.6640 C.ar    1  UNL1        0.0015
     26 C          59.6474   91.5858    4.7749 C.ar    1  UNL1        0.0000
     27 C          60.9565   90.8803    4.9714 C.ar    1  UNL1        0.0000
     28 C          62.1096   91.1706    4.0570 C.ar    1  UNL1        0.0000
     29 C          61.9537   92.1665    2.9463 C.ar    1  UNL1        0.0015
     30 C          49.9435   96.7708   -5.7607 C.3     1  UNL1        0.0293
     31 C          50.8813   96.5846   -4.6049 C.3     1  UNL1        0.0892
     32 O          49.7574   96.8558   -3.6491 O.3     1  UNL1       -0.3867
     33 C          51.8192   96.3983   -3.4491 C.3     1  UNL1        0.0345
     34 C          52.9430   96.1271   -4.4049 C.3     1  UNL1        0.0633
     35 C          52.0052   96.3133   -5.5606 C.3     1  UNL1        0.0345
     36 H          48.9434   97.0279   -4.1477 H       1  UNL1        0.2102
@<TRIPOS>BOND
     1    31    30    1
     2    31    32    1
     3    31    33    1
     4    33    34    1
     5    34     1    1
     6     1     2   ar
     7     2     3   ar
     8     3    13    1
     9    13    14   ar
    10    14    15   ar
    11    15    16   ar
    12    16    17   ar
    13    17    18   ar
    14    18    19   ar
    15    19    24    1
    16    24    25   ar
    17    25    26   ar
    18    26    27   ar
    19    27    28   ar
    20    28    29   ar
    21    19    20   ar
    22    20    21   ar
    23    21    22   ar
    24    22    23    1
    25     3     4   ar
    26     4     5   ar
    27     5     6    1
    28     5     7   ar
    29     7     8   ar
    30     8     9   ar
    31     9    10   ar
    32    34    35    1
    33    35    31    1
    34    10     1   ar
    35    22    13   ar
    36    10     4   ar
    37    21    16   ar
    38    29    24   ar
    39    32    36    1
    40     6    11    1
    41     6    12    1
@<TRIPOS>MOLECULE
*****
 36 41 0 0 0
SMALL
GASTEIGER

@<TRIPOS>ATOM
      1 C          63.5526   86.2514   13.7853 C.ar    1  UNL1        0.1405
      2 N          64.2448   87.4860   13.2885 N.ar    1  UNL1       -0.2290
      3 C          64.2101   88.5096   14.3845 C.ar    1  UNL1        0.1052
      4 C          63.4964   87.9077   15.5585 C.ar    1  UNL1        0.1328
      5 C          63.1641   88.4502   16.9169 C.ar    1  UNL1        0.1466
      6 N          63.5704   89.8458   17.2872 N.pl3   1  UNL1       -0.3413
      7 N          62.4253   87.5971   17.9051 N.ar    1  UNL1       -0.2064
      8 C          62.0189   86.2014   17.5347 C.ar    1  UNL1        0.2211
      9 N          62.3513   85.6590   16.1764 N.ar    1  UNL1       -0.1411
     10 N          63.0900   86.5121   15.1882 N.ar    1  UNL1       -0.2104
     11 H          64.0553   90.4058   16.6387 H       1  UNL1        0.1438
     12 H          63.3523   90.2018   18.1788 H       1  UNL1        0.1438
     13 C          64.7877   89.8924   14.3180 C.ar    1  UNL1        0.0482
     14 C          65.3774   90.5187   15.5468 C.ar    1  UNL1        0.0039
     15 C          65.9550   91.9014   15.4804 C.ar    1  UNL1        0.0017
     16 C          65.9430   92.6579   14.1850 C.ar    1  UNL1        0.0199
     17 C          66.5206   94.0406   14.1186 C.ar    1  UNL1        0.0031
     18 C          66.5085   94.7969   12.8233 C.ar    1  UNL1        0.0191
     19 C          65.9189   94.1705   11.5945 C.ar    1  UNL1        0.0813
     20 N          65.3413   92.7878   11.6610 N.ar    1  UNL1       -0.2431
     21 C          65.3533   92.0315   12.9562 C.ar    1  UNL1        0.1086
     22 C          64.7757   90.6487   13.0227 C.ar    1  UNL1        0.1590
     23 F          64.1860   90.0223   11.7939 F       1  UNL1       -0.2025
     24 C          65.9069   94.9269   10.2992 C.ar    1  UNL1        0.0177
     25 C          64.9881   96.0996   10.1240 C.ar    1  UNL1        0.0015
     26 C          64.9761   96.8560    8.8286 C.ar    1  UNL1        0.0000
     27 C          65.8829   96.4397    7.7086 C.ar    1  UNL1        0.0000
     28 C          66.8016   95.2670    7.8839 C.ar    1  UNL1        0.0000
     29 C          66.8136   94.5106    9.1792 C.ar    1  UNL1        0.0015
     30 C          62.7000   81.7739   12.2785 C.3     1  UNL1        0.0293
     31 C          63.0808   83.1809   11.9244 C.3     1  UNL1        0.0892
     32 O          63.1853   82.7892   10.4802 O.3     1  UNL1       -0.3867
     33 C          63.4616   84.5879   11.5703 C.3     1  UNL1        0.0345
     34 C          63.3571   84.9796   13.0145 C.3     1  UNL1        0.0633
     35 C          62.9764   83.5727   13.3686 C.3     1  UNL1        0.0345
     36 H          62.9756   81.8470   10.3847 H       1  UNL1        0.2102
@<TRIPOS>BOND
     1    31    30    1
     2    31    32    1
     3    31    33    1
     4    33    34    1
     5    34     1    1
     6     1     2   ar
     7     2     3   ar
     8     3    13    1
     9    13    14   ar
    10    14    15   ar
    11    15    16   ar
    12    16    17   ar
    13    17    18   ar
    14    18    19   ar
    15    19    24    1
    16    24    25   ar
    17    25    26   ar
    18    26    27   ar
    19    27    28   ar
    20    28    29   ar
    21    19    20   ar
    22    20    21   ar
    23    21    22   ar
    24    22    23    1
    25     3     4   ar
    26     4     5   ar
    27     5     6    1
    28     5     7   ar
    29     7     8   ar
    30     8     9   ar
    31     9    10   ar
    32    34    35    1
    33    35    31    1
    34    10     1   ar
    35    22    13   ar
    36    10     4   ar
    37    21    16   ar
    38    29    24   ar
    39    32    36    1
    40     6    11    1
    41     6    12    1
@<TRIPOS>MOLECULE
*****
 36 41 0 0 0
SMALL
GASTEIGER

@<TRIPOS>ATOM
      1 C          59.8568   89.6476    7.7486 C.ar    1  UNL1        0.1405
      2 N          60.2763   90.3175    9.0235 N.ar    1  UNL1       -0.2290
      3 C          60.8176   89.2642    9.9442 C.ar    1  UNL1        0.1052
      4 C          60.7326   87.9433    9.2384 C.ar    1  UNL1        0.1328
      5 C          61.1191   86.5555    9.6560 C.ar    1  UNL1        0.1466
      6 N          61.7129   86.3186   11.0130 N.pl3   1  UNL1       -0.3413
      7 N          60.9119   85.4045    8.7167 N.ar    1  UNL1       -0.2064
      8 C          60.3181   85.6415    7.3597 C.ar    1  UNL1        0.2211
      9 N          59.9316   87.0293    6.9421 N.ar    1  UNL1       -0.1411
     10 N          60.1388   88.1802    7.8815 N.ar    1  UNL1       -0.2104
     11 H          61.8489   87.0740   11.6295 H       1  UNL1        0.1438
     12 H          61.9666   85.4077   11.2871 H       1  UNL1        0.1438
     13 C          61.3503   89.4918   11.3279 C.ar    1  UNL1        0.0482
     14 C          60.5292   89.1022   12.5212 C.ar    1  UNL1        0.0039
     15 C          61.0619   89.3298   13.9048 C.ar    1  UNL1        0.0017
     16 C          62.4157   89.9472   14.0951 C.ar    1  UNL1        0.0199
     17 C          62.9483   90.1748   15.4787 C.ar    1  UNL1        0.0031
     18 C          64.3021   90.7921   15.6690 C.ar    1  UNL1        0.0191
     19 C          65.1232   91.1817   14.4757 C.ar    1  UNL1        0.0813
     20 N          64.5905   90.9541   13.0921 N.ar    1  UNL1       -0.2431
     21 C          63.2368   90.3368   12.9018 C.ar    1  UNL1        0.1086
     22 C          62.7040   90.1091   11.5182 C.ar    1  UNL1        0.1590
     23 F          63.5251   90.4988   10.3248 F       1  UNL1       -0.2025
     24 C          66.4770   91.7990   14.6661 C.ar    1  UNL1        0.0177
     25 C          67.5588   91.5608   13.6547 C.ar    1  UNL1        0.0015
     26 C          68.9127   92.1781   13.8451 C.ar    1  UNL1        0.0000
     27 C          69.1846   93.0336   15.0468 C.ar    1  UNL1        0.0000
     28 C          68.1027   93.2718   16.0582 C.ar    1  UNL1        0.0000
     29 C          66.7489   92.6545   15.8678 C.ar    1  UNL1        0.0015
     30 C          58.9605   92.0809    3.7087 C.3     1  UNL1        0.0293
     31 C          58.4162   91.2850    4.8577 C.3     1  UNL1        0.0892
     32 O          57.0280   91.4484    4.3134 O.3     1  UNL1       -0.3867
     33 C          57.8720   90.4891    6.0069 C.3     1  UNL1        0.0345
     34 C          59.2601   90.3258    6.5512 C.3     1  UNL1        0.0633
     35 C          59.8044   91.1216    5.4021 C.3     1  UNL1        0.0345
     36 H          57.0606   91.9688    3.4955 H       1  UNL1        0.2102
@<TRIPOS>BOND
     1    31    30    1
     2    31    32    1
     3    31    33    1
     4    33    34    1
     5    34     1    1
     6     1     2   ar
     7     2     3   ar
     8     3    13    1
     9    13    14   ar
    10    14    15   ar
    11    15    16   ar
    12    16    17   ar
    13    17    18   ar
    14    18    19   ar
    15    19    24    1
    16    24    25   ar
    17    25    26   ar
    18    26    27   ar
    19    27    28   ar
    20    28    29   ar
    21    19    20   ar
    22    20    21   ar
    23    21    22   ar
    24    22    23    1
    25     3     4   ar
    26     4     5   ar
    27     5     6    1
    28     5     7   ar
    29     7     8   ar
    30     8     9   ar
    31     9    10   ar
    32    34    35    1
    33    35    31    1
    34    10     1   ar
    35    22    13   ar
    36    10     4   ar
    37    21    16   ar
    38    29    24   ar
    39    32    36    1
    40     6    11    1
    41     6    12    1
