@<TRIPOS>MOLECULE
*****
 31 34 0 0 0
SMALL
GASTEIGER

@<TRIPOS>ATOM
      1 O          64.0491   88.9071   13.1041 O.3     1  UNL1       -0.3822
      2 C          63.4357   89.8604   12.1217 C.3     1  UNL1        0.1164
      3 C          63.1267   91.1418   11.4059 C.3     1  UNL1        0.0487
      4 C          62.1543   91.1473   10.2638 C.3     1  UNL1        0.0714
      5 N          61.4909   89.8712    9.8376 N.3     1  UNL1       -0.2969
      6 C          61.7999   88.5898   10.5534 C.3     1  UNL1        0.0790
      7 C          62.7723   88.5844   11.6955 C.3     1  UNL1        0.1048
      8 H          64.6580   89.3891   13.6853 H       1  UNL1        0.2107
      9 H          61.7330   89.7267    8.8573 H       1  UNL1        0.1233
     10 C          64.3122   90.8054   12.8892 C.ar    1  UNL1        0.0046
     11 C          64.5339   90.5973   14.3580 C.ar    1  UNL1        0.0004
     12 C          65.4104   91.5423   15.1254 C.ar    1  UNL1        0.0317
     13 C          66.0651   92.6952   14.4239 C.ar    1  UNL1        0.1674
     14 F          66.9415   93.6402   15.1914 F       1  UNL1       -0.2018
     15 C          65.8433   92.9033   12.9551 C.ar    1  UNL1        0.1671
     16 F          66.4980   94.0562   12.2536 F       1  UNL1       -0.2018
     17 C          64.9669   91.9583   12.1877 C.ar    1  UNL1        0.0299
     18 C          63.0813   87.3030   12.4114 C.ar    1  UNL1        0.1640
     19 O          63.9152   87.1642   13.6505 O.2     1  UNL1       -0.3571
     20 N          63.9600   85.7108   14.0186 N.ar    1  UNL1       -0.0768
     21 C          63.1538   84.9513   13.0072 C.ar    1  UNL1        0.1304
     22 C          62.6107   85.9353   12.0138 C.ar    1  UNL1        0.0883
     23 BR         61.7484   85.6090   10.8305 Br      1  UNL1       -0.0444
     24 C          62.9298   83.4682   12.9917 C.ar    1  UNL1        0.0425
     25 C          63.3918   82.6520   11.8211 C.ar    1  UNL1        0.0600
     26 CL         64.0778   83.3191   10.6658 Cl      1  UNL1       -0.0822
     27 C          63.1679   81.1690   11.8056 C.ar    1  UNL1        0.0115
     28 C          62.4820   80.5019   12.9609 C.ar    1  UNL1        0.0017
     29 C          62.0199   81.3181   14.1316 C.ar    1  UNL1        0.0115
     30 C          62.2439   82.8012   14.1470 C.ar    1  UNL1        0.0600
     31 CL         61.7819   83.6173   15.3177 Cl      1  UNL1       -0.0822
@<TRIPOS>BOND
     1     2     1    1
     2     2    10    1
     3    10    11   ar
     4    11    12   ar
     5    12    13   ar
     6    13    14    1
     7    13    15   ar
     8    15    16    1
     9    15    17   ar
    10     2     3    1
    11     3     4    1
    12     4     5    1
    13     5     6    1
    14     6     7    1
    15     7    18    1
    16    18    19   ar
    17    19    20   ar
    18    20    21   ar
    19    21    24    1
    20    24    25   ar
    21    25    26    1
    22    25    27   ar
    23    27    28   ar
    24    28    29   ar
    25    29    30   ar
    26    30    31    1
    27    21    22   ar
    28    22    23    1
    29     7     2    1
    30    22    18   ar
    31    17    10   ar
    32    30    24   ar
    33     1     8    1
    34     5     9    1
@<TRIPOS>MOLECULE
*****
 31 34 0 0 0
SMALL
GASTEIGER

@<TRIPOS>ATOM
      1 O          64.0485   88.9095   13.0960 O.3     1  UNL1       -0.3822
      2 C          63.4374   89.8618   12.1113 C.3     1  UNL1        0.1164
      3 C          63.1315   91.1421   11.3922 C.3     1  UNL1        0.0487
      4 C          62.1589   91.1470   10.2502 C.3     1  UNL1        0.0714
      5 N          61.4922   89.8716    9.8274 N.3     1  UNL1       -0.2969
      6 C          61.7981   88.5912   10.5465 C.3     1  UNL1        0.0790
      7 C          62.7707   88.5863   11.6884 C.3     1  UNL1        0.1048
      8 H          64.6587   89.3915   13.6759 H       1  UNL1        0.2107
      9 H          61.7337   89.7239    8.8475 H       1  UNL1        0.1233
     10 C          64.3164   90.8065   12.8761 C.ar    1  UNL1        0.0046
     11 C          64.5539   90.5901   14.3413 C.ar    1  UNL1        0.0004
     12 C          65.4328   91.5349   15.1061 C.ar    1  UNL1        0.0317
     13 C          66.0743   92.6959   14.4057 C.ar    1  UNL1        0.1674
     14 F          66.9532   93.6406   15.1705 F       1  UNL1       -0.2018
     15 C          65.8367   92.9123   12.9405 C.ar    1  UNL1        0.1671
     16 F          66.4782   94.0733   12.2401 F       1  UNL1       -0.2018
     17 C          64.9578   91.9676   12.1757 C.ar    1  UNL1        0.0299
     18 C          63.0766   87.3060   12.4076 C.ar    1  UNL1        0.1640
     19 O          63.8995   87.1699   13.6543 O.2     1  UNL1       -0.3571
     20 N          63.9448   85.7168   14.0234 N.ar    1  UNL1       -0.0768
     21 C          63.1499   84.9547   13.0049 C.ar    1  UNL1        0.1304
     22 C          62.6134   85.9369   12.0062 C.ar    1  UNL1        0.0883
     23 BR         61.7629   85.6079   10.8152 Br      1  UNL1       -0.0444
     24 C          62.9302   83.4710   12.9879 C.ar    1  UNL1        0.0425
     25 C          62.2475   82.8006   14.1431 C.ar    1  UNL1        0.0600
     26 CL         61.7844   83.6140   15.3153 Cl      1  UNL1       -0.0822
     27 C          62.0277   81.3170   14.1261 C.ar    1  UNL1        0.0115
     28 C          62.4907   80.5035   12.9539 C.ar    1  UNL1        0.0017
     29 C          63.1735   81.1739   11.7986 C.ar    1  UNL1        0.0115
     30 C          63.3932   82.6576   11.8157 C.ar    1  UNL1        0.0600
     31 CL         64.0760   83.3280   10.6605 Cl      1  UNL1       -0.0822
@<TRIPOS>BOND
     1     2     1    1
     2     2    10    1
     3    10    11   ar
     4    11    12   ar
     5    12    13   ar
     6    13    14    1
     7    13    15   ar
     8    15    16    1
     9    15    17   ar
    10     2     3    1
    11     3     4    1
    12     4     5    1
    13     5     6    1
    14     6     7    1
    15     7    18    1
    16    18    19   ar
    17    19    20   ar
    18    20    21   ar
    19    21    24    1
    20    24    25   ar
    21    25    26    1
    22    25    27   ar
    23    27    28   ar
    24    28    29   ar
    25    29    30   ar
    26    30    31    1
    27    21    22   ar
    28    22    23    1
    29     7     2    1
    30    22    18   ar
    31    17    10   ar
    32    30    24   ar
    33     1     8    1
    34     5     9    1
@<TRIPOS>MOLECULE
*****
 31 34 0 0 0
SMALL
GASTEIGER

@<TRIPOS>ATOM
      1 O          63.1736   88.0812   11.9760 O.3     1  UNL1       -0.3822
      2 C          62.0938   88.3329   10.9656 C.3     1  UNL1        0.1164
      3 C          61.1323   88.0905    9.8402 C.3     1  UNL1        0.0487
      4 C          60.2054   89.1834    9.3971 C.3     1  UNL1        0.0714
      5 N          60.2402   90.5188   10.0794 N.3     1  UNL1       -0.2969
      6 C          61.2017   90.7613   11.2048 C.3     1  UNL1        0.0790
      7 C          62.1286   89.6683   11.6479 C.3     1  UNL1        0.1048
      8 H          63.5009   87.1731   11.8800 H       1  UNL1        0.2107
      9 H          59.3047   90.6842   10.4506 H       1  UNL1        0.1233
     10 C          62.4341   86.9100   10.6342 C.ar    1  UNL1        0.0046
     11 C          62.6002   85.9030   11.7334 C.ar    1  UNL1        0.0004
     12 C          62.9405   84.4803   11.4020 C.ar    1  UNL1        0.0317
     13 C          63.1147   84.0645    9.9713 C.ar    1  UNL1        0.1674
     14 F          63.4550   82.6416    9.6399 F       1  UNL1       -0.2018
     15 C          62.9486   85.0715    8.8721 C.ar    1  UNL1        0.1671
     16 F          63.1228   84.6557    7.4415 F       1  UNL1       -0.2018
     17 C          62.6083   86.4942    9.2036 C.ar    1  UNL1        0.0299
     18 C          63.0902   89.9107   12.7733 C.ar    1  UNL1        0.1640
     19 O          63.1629   89.1330   14.0540 O.2     1  UNL1       -0.3571
     20 N          64.2656   89.7150   14.8877 N.ar    1  UNL1       -0.0768
     21 C          64.8745   90.8524   14.1225 C.ar    1  UNL1        0.1304
     22 C          64.1480   90.9733   12.8157 C.ar    1  UNL1        0.0883
     23 BR         64.4299   91.9802   11.7401 Br      1  UNL1       -0.0444
     24 C          66.0103   91.7171   14.5831 C.ar    1  UNL1        0.0425
     25 C          67.2114   91.9082   13.7051 C.ar    1  UNL1        0.0600
     26 CL         67.2766   91.2345   12.3664 Cl      1  UNL1       -0.0822
     27 C          68.3472   92.7728   14.1657 C.ar    1  UNL1        0.0115
     28 C          68.2820   93.4465   15.5044 C.ar    1  UNL1        0.0017
     29 C          67.0809   93.2554   16.3825 C.ar    1  UNL1        0.0115
     30 C          65.9451   92.3907   15.9218 C.ar    1  UNL1        0.0600
     31 CL         64.7440   92.1996   16.7998 Cl      1  UNL1       -0.0822
@<TRIPOS>BOND
     1     2     1    1
     2     2    10    1
     3    10    11   ar
     4    11    12   ar
     5    12    13   ar
     6    13    14    1
     7    13    15   ar
     8    15    16    1
     9    15    17   ar
    10     2     3    1
    11     3     4    1
    12     4     5    1
    13     5     6    1
    14     6     7    1
    15     7    18    1
    16    18    19   ar
    17    19    20   ar
    18    20    21   ar
    19    21    24    1
    20    24    25   ar
    21    25    26    1
    22    25    27   ar
    23    27    28   ar
    24    28    29   ar
    25    29    30   ar
    26    30    31    1
    27    21    22   ar
    28    22    23    1
    29     7     2    1
    30    22    18   ar
    31    17    10   ar
    32    30    24   ar
    33     1     8    1
    34     5     9    1
@<TRIPOS>MOLECULE
*****
 31 34 0 0 0
SMALL
GASTEIGER

@<TRIPOS>ATOM
      1 O          63.1730   88.0829   11.9768 O.3     1  UNL1       -0.3822
      2 C          62.0934   88.3347   10.9663 C.3     1  UNL1        0.1164
      3 C          61.1320   88.0924    9.8407 C.3     1  UNL1        0.0487
      4 C          60.2054   89.1855    9.3974 C.3     1  UNL1        0.0714
      5 N          60.2403   90.5209   10.0797 N.3     1  UNL1       -0.2969
      6 C          61.2017   90.7632   11.2053 C.3     1  UNL1        0.0790
      7 C          62.1283   89.6702   11.6486 C.3     1  UNL1        0.1048
      8 H          63.5002   87.1748   11.8809 H       1  UNL1        0.2107
      9 H          59.3047   90.6865   10.4508 H       1  UNL1        0.1233
     10 C          62.4336   86.9118   10.6350 C.ar    1  UNL1        0.0046
     11 C          62.6003   85.9050   11.7343 C.ar    1  UNL1        0.0004
     12 C          62.9404   84.4822   11.4029 C.ar    1  UNL1        0.0317
     13 C          63.1138   84.0662    9.9723 C.ar    1  UNL1        0.1674
     14 F          63.4540   82.6433    9.6409 F       1  UNL1       -0.2018
     15 C          62.9471   85.0730    8.8729 C.ar    1  UNL1        0.1671
     16 F          63.1205   84.6569    7.4423 F       1  UNL1       -0.2018
     17 C          62.6070   86.4958    9.2043 C.ar    1  UNL1        0.0299
     18 C          63.0897   89.9124   12.7742 C.ar    1  UNL1        0.1640
     19 O          63.1617   89.1351   14.0550 O.2     1  UNL1       -0.3571
     20 N          64.2645   89.7168   14.8889 N.ar    1  UNL1       -0.0768
     21 C          64.8741   90.8536   14.1235 C.ar    1  UNL1        0.1304
     22 C          64.1481   90.9745   12.8165 C.ar    1  UNL1        0.0883
     23 BR         64.4307   91.9809   11.7406 Br      1  UNL1       -0.0444
     24 C          66.0103   91.7179   14.5841 C.ar    1  UNL1        0.0425
     25 C          65.9452   92.3921   15.9224 C.ar    1  UNL1        0.0600
     26 CL         64.7437   92.2020   16.8002 Cl      1  UNL1       -0.0822
     27 C          67.0813   93.2563   16.3830 C.ar    1  UNL1        0.0115
     28 C          68.2827   93.4464   15.5052 C.ar    1  UNL1        0.0017
     29 C          68.3479   92.7722   14.1668 C.ar    1  UNL1        0.0115
     30 C          67.2117   91.9080   13.7063 C.ar    1  UNL1        0.0600
     31 CL         67.2769   91.2338   12.3679 Cl      1  UNL1       -0.0822
@<TRIPOS>BOND
     1     2     1    1
     2     2    10    1
     3    10    11   ar
     4    11    12   ar
     5    12    13   ar
     6    13    14    1
     7    13    15   ar
     8    15    16    1
     9    15    17   ar
    10     2     3    1
    11     3     4    1
    12     4     5    1
    13     5     6    1
    14     6     7    1
    15     7    18    1
    16    18    19   ar
    17    19    20   ar
    18    20    21   ar
    19    21    24    1
    20    24    25   ar
    21    25    26    1
    22    25    27   ar
    23    27    28   ar
    24    28    29   ar
    25    29    30   ar
    26    30    31    1
    27    21    22   ar
    28    22    23    1
    29     7     2    1
    30    22    18   ar
    31    17    10   ar
    32    30    24   ar
    33     1     8    1
    34     5     9    1
@<TRIPOS>MOLECULE
*****
 31 34 0 0 0
SMALL
GASTEIGER

@<TRIPOS>ATOM
      1 O          64.1310   89.3816   12.8416 O.3     1  UNL1       -0.3822
      2 C          63.8604   89.2773   14.3133 C.3     1  UNL1        0.1164
      3 C          63.5759   88.6690   15.6545 C.3     1  UNL1        0.0487
      4 C          63.4251   89.5484   16.8603 C.3     1  UNL1        0.0714
      5 N          63.5588   91.0363   16.7247 N.3     1  UNL1       -0.2969
      6 C          63.8432   91.6447   15.3835 C.3     1  UNL1        0.0790
      7 C          63.9940   90.7653   14.1778 C.3     1  UNL1        0.1048
      8 H          64.1357   88.4941   12.4501 H       1  UNL1        0.2107
      9 H          64.3173   91.3215   17.3442 H       1  UNL1        0.1233
     10 C          63.8207   87.8256   13.9377 C.ar    1  UNL1        0.0046
     11 C          64.4477   86.8011   14.8361 C.ar    1  UNL1        0.0004
     12 C          64.4080   85.3495   14.4604 C.ar    1  UNL1        0.0317
     13 C          63.7414   84.9224   13.1864 C.ar    1  UNL1        0.1674
     14 F          63.7017   83.4706   12.8108 F       1  UNL1       -0.2018
     15 C          63.1143   85.9469   12.2880 C.ar    1  UNL1        0.1671
     16 F          62.4477   85.5198   11.0140 F       1  UNL1       -0.2018
     17 C          63.1540   87.3985   12.6637 C.ar    1  UNL1        0.0299
     18 C          64.2785   91.3736   12.8365 C.ar    1  UNL1        0.1640
     19 O          63.4378   91.2222   11.6034 O.2     1  UNL1       -0.3571
     20 N          64.0934   91.9951   10.4978 N.ar    1  UNL1       -0.0768
     21 C          65.3392   92.6243   11.0473 C.ar    1  UNL1        0.1304
     22 C          65.4536   92.2401   12.4927 C.ar    1  UNL1        0.0883
     23 BR         66.5506   92.6504   13.4300 Br      1  UNL1       -0.0444
     24 C          66.3017   93.4862   10.2853 C.ar    1  UNL1        0.0425
     25 C          67.5423   92.8843    9.6949 C.ar    1  UNL1        0.0600
     26 CL         67.8204   91.4202    9.8666 Cl      1  UNL1       -0.0822
     27 C          68.5047   93.7462    8.9329 C.ar    1  UNL1        0.0115
     28 C          68.2266   95.2102    8.7613 C.ar    1  UNL1        0.0017
     29 C          66.9860   95.8122    9.3516 C.ar    1  UNL1        0.0115
     30 C          66.0236   94.9502   10.1136 C.ar    1  UNL1        0.0600
     31 CL         64.7829   95.5522   10.7040 Cl      1  UNL1       -0.0822
@<TRIPOS>BOND
     1     2     1    1
     2     2    10    1
     3    10    11   ar
     4    11    12   ar
     5    12    13   ar
     6    13    14    1
     7    13    15   ar
     8    15    16    1
     9    15    17   ar
    10     2     3    1
    11     3     4    1
    12     4     5    1
    13     5     6    1
    14     6     7    1
    15     7    18    1
    16    18    19   ar
    17    19    20   ar
    18    20    21   ar
    19    21    24    1
    20    24    25   ar
    21    25    26    1
    22    25    27   ar
    23    27    28   ar
    24    28    29   ar
    25    29    30   ar
    26    30    31    1
    27    21    22   ar
    28    22    23    1
    29     7     2    1
    30    22    18   ar
    31    17    10   ar
    32    30    24   ar
    33     1     8    1
    34     5     9    1
@<TRIPOS>MOLECULE
*****
 31 34 0 0 0
SMALL
GASTEIGER

@<TRIPOS>ATOM
      1 O          64.3812   87.4917   13.8046 O.3     1  UNL1       -0.3822
      2 C          63.8643   88.3059   14.9535 C.3     1  UNL1        0.1164
      3 C          63.4166   89.4962   15.7488 C.3     1  UNL1        0.0487
      4 C          62.9489   89.3205   17.1631 C.3     1  UNL1        0.0714
      5 N          62.9289   87.9544   17.7822 N.3     1  UNL1       -0.2969
      6 C          63.3766   86.7640   16.9869 C.3     1  UNL1        0.0790
      7 C          63.8443   86.9397   15.5726 C.3     1  UNL1        0.1048
      8 H          64.5606   88.0744   13.0502 H       1  UNL1        0.2107
      9 H          61.9660   87.7737   18.0659 H       1  UNL1        0.1233
     10 C          64.0638   89.3893   13.9354 C.ar    1  UNL1        0.0046
     11 C          65.0135   90.5160   14.2155 C.ar    1  UNL1        0.0004
     12 C          65.2130   91.5993   13.1974 C.ar    1  UNL1        0.0317
     13 C          64.4628   91.5559   11.8992 C.ar    1  UNL1        0.1674
     14 F          64.6624   92.6393   10.8811 F       1  UNL1       -0.2018
     15 C          63.5131   90.4292   11.6191 C.ar    1  UNL1        0.1671
     16 F          62.7629   90.3858   10.3209 F       1  UNL1       -0.2018
     17 C          63.3136   89.3459   12.6372 C.ar    1  UNL1        0.0299
     18 C          64.2920   85.7493   14.7772 C.ar    1  UNL1        0.1640
     19 O          65.7127   85.3281   14.5443 O.2     1  UNL1       -0.3571
     20 N          65.6962   84.0897   13.6983 N.ar    1  UNL1       -0.0768
     21 C          64.2653   83.7453   13.4083 C.ar    1  UNL1        0.1304
     22 C          63.3975   84.7710   14.0751 C.ar    1  UNL1        0.0883
     23 BR         61.8983   84.8115   14.0451 Br      1  UNL1       -0.0444
     24 C          63.7864   82.5799   12.5944 C.ar    1  UNL1        0.0425
     25 C          63.9218   82.6020   11.1007 C.ar    1  UNL1        0.0600
     26 CL         64.5363   83.7897   10.4209 Cl      1  UNL1       -0.0822
     27 C          63.4429   81.4367   10.2868 C.ar    1  UNL1        0.0115
     28 C          62.8285   80.2491   10.9666 C.ar    1  UNL1        0.0017
     29 C          62.6930   80.2269   12.4604 C.ar    1  UNL1        0.0115
     30 C          63.1720   81.3923   13.2742 C.ar    1  UNL1        0.0600
     31 CL         63.0365   81.3702   14.7680 Cl      1  UNL1       -0.0822
@<TRIPOS>BOND
     1     2     1    1
     2     2    10    1
     3    10    11   ar
     4    11    12   ar
     5    12    13   ar
     6    13    14    1
     7    13    15   ar
     8    15    16    1
     9    15    17   ar
    10     2     3    1
    11     3     4    1
    12     4     5    1
    13     5     6    1
    14     6     7    1
    15     7    18    1
    16    18    19   ar
    17    19    20   ar
    18    20    21   ar
    19    21    24    1
    20    24    25   ar
    21    25    26    1
    22    25    27   ar
    23    27    28   ar
    24    28    29   ar
    25    29    30   ar
    26    30    31    1
    27    21    22   ar
    28    22    23    1
    29     7     2    1
    30    22    18   ar
    31    17    10   ar
    32    30    24   ar
    33     1     8    1
    34     5     9    1
@<TRIPOS>MOLECULE
*****
 31 34 0 0 0
SMALL
GASTEIGER

@<TRIPOS>ATOM
      1 O          63.1706   88.8304   11.2812 O.3     1  UNL1       -0.3822
      2 C          61.6966   88.5529   11.2605 C.3     1  UNL1        0.1164
      3 C          60.4035   87.8163   11.0729 C.3     1  UNL1        0.0487
      4 C          59.1015   88.4980   11.3731 C.3     1  UNL1        0.0714
      5 N          59.0927   89.9165   11.8609 N.3     1  UNL1       -0.2969
      6 C          60.3858   90.6531   12.0485 C.3     1  UNL1        0.0790
      7 C          61.6877   89.9714   11.7484 C.3     1  UNL1        0.1048
      8 H          63.6522   88.0419   10.9859 H       1  UNL1        0.2107
      9 H          58.6214   89.9138   12.7655 H       1  UNL1        0.1233
     10 C          62.2173   87.2308   10.7799 C.ar    1  UNL1        0.0046
     11 C          62.4030   86.9868    9.3116 C.ar    1  UNL1        0.0004
     12 C          62.9238   85.6648    8.8310 C.ar    1  UNL1        0.0317
     13 C          63.2588   84.5868    9.8187 C.ar    1  UNL1        0.1674
     14 F          63.7796   83.2647    9.3380 F       1  UNL1       -0.2018
     15 C          63.0732   84.8308   11.2870 C.ar    1  UNL1        0.1671
     16 F          63.4082   83.7527   12.2747 F       1  UNL1       -0.2018
     17 C          62.5524   86.1528   11.7676 C.ar    1  UNL1        0.0299
     18 C          62.9809   90.7079   11.9360 C.ar    1  UNL1        0.1640
     19 O          63.6693   91.5567   10.9085 O.2     1  UNL1       -0.3571
     20 N          64.9265   92.0983   11.5216 N.ar    1  UNL1       -0.0768
     21 C          65.0152   91.5844   12.9280 C.ar    1  UNL1        0.1304
     22 C          63.8127   90.7251   13.1841 C.ar    1  UNL1        0.0883
     23 BR         63.4973   90.0087   14.4637 Br      1  UNL1       -0.0444
     24 C          66.1134   91.8782   13.9066 C.ar    1  UNL1        0.0425
     25 C          65.7816   92.1832   15.3372 C.ar    1  UNL1        0.0600
     26 CL         64.3513   92.1945   15.7893 Cl      1  UNL1       -0.0822
     27 C          66.8798   92.4770   16.3157 C.ar    1  UNL1        0.0115
     28 C          68.3100   92.4657   15.8636 C.ar    1  UNL1        0.0017
     29 C          68.6419   92.1606   14.4329 C.ar    1  UNL1        0.0115
     30 C          67.5436   91.8669   13.4544 C.ar    1  UNL1        0.0600
     31 CL         67.8755   91.5618   12.0237 Cl      1  UNL1       -0.0822
@<TRIPOS>BOND
     1     2     1    1
     2     2    10    1
     3    10    11   ar
     4    11    12   ar
     5    12    13   ar
     6    13    14    1
     7    13    15   ar
     8    15    16    1
     9    15    17   ar
    10     2     3    1
    11     3     4    1
    12     4     5    1
    13     5     6    1
    14     6     7    1
    15     7    18    1
    16    18    19   ar
    17    19    20   ar
    18    20    21   ar
    19    21    24    1
    20    24    25   ar
    21    25    26    1
    22    25    27   ar
    23    27    28   ar
    24    28    29   ar
    25    29    30   ar
    26    30    31    1
    27    21    22   ar
    28    22    23    1
    29     7     2    1
    30    22    18   ar
    31    17    10   ar
    32    30    24   ar
    33     1     8    1
    34     5     9    1
@<TRIPOS>MOLECULE
*****
 31 34 0 0 0
SMALL
GASTEIGER

@<TRIPOS>ATOM
      1 O          65.1302   89.8791   13.3504 O.3     1  UNL1       -0.3822
      2 C          64.2291   89.6989   14.5360 C.3     1  UNL1        0.1164
      3 C          63.2058   89.0917   15.4492 C.3     1  UNL1        0.0487
      4 C          62.8473   89.7765   16.7347 C.3     1  UNL1        0.0714
      5 N          63.5122   91.0686   17.1069 N.3     1  UNL1       -0.2969
      6 C          64.5355   91.6758   16.1937 C.3     1  UNL1        0.0790
      7 C          64.8940   90.9910   14.9082 C.3     1  UNL1        0.1048
      8 H          65.0097   89.1375   12.7370 H       1  UNL1        0.2107
      9 H          63.9725   90.9151   18.0042 H       1  UNL1        0.1233
     10 C          63.8772   88.4694   13.7520 C.ar    1  UNL1        0.0046
     11 C          63.1944   88.5975   12.4226 C.ar    1  UNL1        0.0004
     12 C          62.8425   87.3680   11.6387 C.ar    1  UNL1        0.0317
     13 C          63.1734   86.0105   12.1842 C.ar    1  UNL1        0.1674
     14 F          62.8215   84.7810   11.4002 F       1  UNL1       -0.2018
     15 C          63.8562   85.8824   13.5136 C.ar    1  UNL1        0.1671
     16 F          64.1870   84.5248   14.0591 F       1  UNL1       -0.2018
     17 C          64.2080   87.1118   14.2975 C.ar    1  UNL1        0.0299
     18 C          65.9173   91.5981   13.9949 C.ar    1  UNL1        0.1640
     19 O          67.3984   91.6333   14.2296 O.2     1  UNL1       -0.3571
     20 N          68.0355   92.3336   13.0662 N.ar    1  UNL1       -0.0768
     21 C          66.9483   92.7313   12.1124 C.ar    1  UNL1        0.1304
     22 C          65.6391   92.2767   12.6863 C.ar    1  UNL1        0.0883
     23 BR         64.2888   92.4673   12.0616 Br      1  UNL1       -0.0444
     24 C          67.1370   93.4562   10.8128 C.ar    1  UNL1        0.0425
     25 C          66.6973   94.8842   10.6798 C.ar    1  UNL1        0.0600
     26 CL         66.0690   95.5872   11.8465 Cl      1  UNL1       -0.0822
     27 C          66.8860   95.6091    9.3803 C.ar    1  UNL1        0.0115
     28 C          67.5144   94.9061    8.2136 C.ar    1  UNL1        0.0017
     29 C          67.9541   93.4781    8.3467 C.ar    1  UNL1        0.0115
     30 C          67.7653   92.7532    9.6462 C.ar    1  UNL1        0.0600
     31 CL         68.2050   91.3252    9.7793 Cl      1  UNL1       -0.0822
@<TRIPOS>BOND
     1     2     1    1
     2     2    10    1
     3    10    11   ar
     4    11    12   ar
     5    12    13   ar
     6    13    14    1
     7    13    15   ar
     8    15    16    1
     9    15    17   ar
    10     2     3    1
    11     3     4    1
    12     4     5    1
    13     5     6    1
    14     6     7    1
    15     7    18    1
    16    18    19   ar
    17    19    20   ar
    18    20    21   ar
    19    21    24    1
    20    24    25   ar
    21    25    26    1
    22    25    27   ar
    23    27    28   ar
    24    28    29   ar
    25    29    30   ar
    26    30    31    1
    27    21    22   ar
    28    22    23    1
    29     7     2    1
    30    22    18   ar
    31    17    10   ar
    32    30    24   ar
    33     1     8    1
    34     5     9    1
@<TRIPOS>MOLECULE
*****
 31 34 0 0 0
SMALL
GASTEIGER

@<TRIPOS>ATOM
      1 O          65.1395   89.8737   13.3654 O.3     1  UNL1       -0.3822
      2 C          64.2373   89.6983   14.5508 C.3     1  UNL1        0.1164
      3 C          63.2145   89.0939   15.4665 C.3     1  UNL1        0.0487
      4 C          62.8523   89.7857   16.7472 C.3     1  UNL1        0.0714
      5 N          63.5130   91.0820   17.1122 N.3     1  UNL1       -0.2969
      6 C          64.5358   91.6864   16.1966 C.3     1  UNL1        0.0790
      7 C          64.8979   90.9946   14.9159 C.3     1  UNL1        0.1048
      8 H          65.0219   89.1279   12.7564 H       1  UNL1        0.2107
      9 H          63.9724   90.9354   18.0110 H       1  UNL1        0.1233
     10 C          63.8900   88.4629   13.7741 C.ar    1  UNL1        0.0046
     11 C          63.2074   88.5807   12.4436 C.ar    1  UNL1        0.0004
     12 C          62.8601   87.3453   11.6670 C.ar    1  UNL1        0.0317
     13 C          63.1954   85.9922   12.2207 C.ar    1  UNL1        0.1674
     14 F          62.8481   84.7569   11.4440 F       1  UNL1       -0.2018
     15 C          63.8780   85.8745   13.5512 C.ar    1  UNL1        0.1671
     16 F          64.2133   84.5214   14.1049 F       1  UNL1       -0.2018
     17 C          64.2253   87.1098   14.3278 C.ar    1  UNL1        0.0299
     18 C          65.9207   91.5990   14.0001 C.ar    1  UNL1        0.1640
     19 O          67.4023   91.6317   14.2321 O.2     1  UNL1       -0.3571
     20 N          68.0387   92.3297   13.0669 N.ar    1  UNL1       -0.0768
     21 C          66.9504   92.7284   12.1147 C.ar    1  UNL1        0.1304
     22 C          65.6415   92.2769   12.6914 C.ar    1  UNL1        0.0883
     23 BR         64.2904   92.4693   12.0689 Br      1  UNL1       -0.0444
     24 C          67.1382   93.4518   10.8141 C.ar    1  UNL1        0.0425
     25 C          67.7675   92.7481    9.6485 C.ar    1  UNL1        0.0600
     26 CL         68.2092   91.3209    9.7836 Cl      1  UNL1       -0.0822
     27 C          67.9552   93.4714    8.3480 C.ar    1  UNL1        0.0115
     28 C          67.5135   94.8986    8.2130 C.ar    1  UNL1        0.0017
     29 C          66.8841   95.6024    9.3786 C.ar    1  UNL1        0.0115
     30 C          66.6964   94.8789   10.6791 C.ar    1  UNL1        0.0600
     31 CL         66.0670   95.5827   11.8448 Cl      1  UNL1       -0.0822
@<TRIPOS>BOND
     1     2     1    1
     2     2    10    1
     3    10    11   ar
     4    11    12   ar
     5    12    13   ar
     6    13    14    1
     7    13    15   ar
     8    15    16    1
     9    15    17   ar
    10     2     3    1
    11     3     4    1
    12     4     5    1
    13     5     6    1
    14     6     7    1
    15     7    18    1
    16    18    19   ar
    17    19    20   ar
    18    20    21   ar
    19    21    24    1
    20    24    25   ar
    21    25    26    1
    22    25    27   ar
    23    27    28   ar
    24    28    29   ar
    25    29    30   ar
    26    30    31    1
    27    21    22   ar
    28    22    23    1
    29     7     2    1
    30    22    18   ar
    31    17    10   ar
    32    30    24   ar
    33     1     8    1
    34     5     9    1
