@<TRIPOS>MOLECULE
*****
 28 31 0 0 0
SMALL
GASTEIGER

@<TRIPOS>ATOM
      1 N          65.9099   92.9225   12.7321 N.3     1  UNL1       -0.2586
      2 C          66.7336   93.0772   11.4881 C.3     1  UNL1        0.0982
      3 C          67.6539   91.9743   11.0560 C.3     1  UNL1        0.0224
      4 C          68.4776   92.1290    9.8120 C.3     1  UNL1        0.0065
      5 C          68.3811   93.3866    9.0002 C.3     1  UNL1        0.0277
      6 C          67.4609   94.4895    9.4323 C.ar    1  UNL1       -0.0073
      7 C          67.3644   95.7471    8.6204 C.ar    1  UNL1       -0.0015
      8 C          66.4442   96.8500    9.0525 C.ar    1  UNL1        0.0203
      9 C          65.6204   96.6953   10.2965 C.ar    1  UNL1        0.0985
     10 N          65.7169   95.4377   11.1084 N.ar    1  UNL1       -0.2471
     11 C          66.6371   94.3348   10.6762 C.ar    1  UNL1        0.0695
     12 C          66.4119   93.4667   14.0366 C.3     1  UNL1        0.0730
     13 C          66.6854   92.5371   15.1816 C.3     1  UNL1        0.0188
     14 C          67.8860   92.7549   16.0541 C.3     1  UNL1        0.0183
     15 N          69.6892   92.3493   14.2283 N.3     1  UNL1       -0.3211
     16 C          69.2096   93.0970   15.4369 C.3     1  UNL1        0.0652
     17 H          70.6003   92.7099   13.9448 H       1  UNL1        0.1189
     18 H          69.0228   92.4721   13.4659 H       1  UNL1        0.1189
     19 C          64.5840   92.2236   12.6715 C.3     1  UNL1        0.1979
     20 C          64.3026   91.0685   13.5863 C.2     1  UNL1        0.3675
     21 N          63.5864   91.1402   14.9023 N.2     1  UNL1       -0.0337
     22 C          63.5292   89.7550   15.4750 C.2     1  UNL1        0.2318
     23 C          62.9451   89.2186   16.7482 C.2     1  UNL1        0.0498
     24 C          63.0418   87.7545   17.0593 C.2     1  UNL1       -0.0002
     25 C          63.7226   86.8267   16.0972 C.2     1  UNL1       -0.0172
     26 C          64.3067   87.3630   14.8240 C.3     1  UNL1        0.1037
     27 C          64.2100   88.8272   14.5129 C.2     1  UNL1        0.2175
     28 N          64.6880   89.6390   13.3455 N.2     1  UNL1       -0.0375
@<TRIPOS>BOND
     1    15    16    1
     2    16    14    1
     3    14    13    1
     4    13    12    1
     5    12     1    1
     6     1    19    1
     7    19    20    1
     8    20    21    2
     9    21    22    1
    10    22    23    2
    11    23    24    1
    12    24    25    2
    13    25    26    1
    14    26    27    1
    15    27    28    2
    16     2     1    1
    17     2     3    1
    18     3     4    1
    19     4     5    1
    20     5     6    1
    21     6     7   ar
    22     7     8   ar
    23     8     9   ar
    24     9    10   ar
    25    10    11   ar
    26    28    20    1
    27    11     2    1
    28    27    22    1
    29    11     6   ar
    30    15    17    1
    31    15    18    1
@<TRIPOS>MOLECULE
*****
 28 31 0 0 0
SMALL
GASTEIGER

@<TRIPOS>ATOM
      1 N          63.7164   88.6224   14.6763 N.3     1  UNL1       -0.2586
      2 C          63.7620   89.5503   13.4987 C.3     1  UNL1        0.0982
      3 C          62.9373   89.2573   12.2805 C.3     1  UNL1        0.0224
      4 C          62.9829   90.1852   11.1029 C.3     1  UNL1        0.0065
      5 C          63.8533   91.4062   11.1434 C.3     1  UNL1        0.0277
      6 C          64.6781   91.6992   12.3616 C.ar    1  UNL1       -0.0073
      7 C          65.5484   92.9202   12.4021 C.ar    1  UNL1       -0.0015
      8 C          66.3732   93.2132   13.6202 C.ar    1  UNL1        0.0203
      9 C          66.3276   92.2853   14.7979 C.ar    1  UNL1        0.0985
     10 N          65.4572   91.0643   14.7574 N.ar    1  UNL1       -0.2471
     11 C          64.6325   90.7713   13.5392 C.ar    1  UNL1        0.0695
     12 C          62.7308   88.8611   15.7816 C.3     1  UNL1        0.0730
     13 C          63.1533   88.6974   17.2115 C.3     1  UNL1        0.0188
     14 C          62.7670   87.4628   17.9710 C.3     1  UNL1        0.0183
     15 N          60.9432   86.0008   16.8369 N.3     1  UNL1       -0.3211
     16 C          62.3741   86.2189   17.2305 C.3     1  UNL1        0.0652
     17 H          60.8577   85.1112   16.3452 H       1  UNL1        0.1189
     18 H          60.6397   86.7582   16.2248 H       1  UNL1        0.1189
     19 C          64.6565   87.4556   14.7487 C.3     1  UNL1        0.1979
     20 C          64.2368   86.1199   14.2105 C.2     1  UNL1        0.3675
     21 N          63.4321   85.8837   12.9669 N.2     1  UNL1       -0.0337
     22 C          63.2461   84.4036   12.8092 C.2     1  UNL1        0.2318
     23 C          62.5378   83.5861   11.7700 C.2     1  UNL1        0.0498
     24 C          62.5192   82.0901   11.8770 C.2     1  UNL1       -0.0002
     25 C          63.2091   81.4116   13.0232 C.2     1  UNL1       -0.0172
     26 C          63.9174   82.2290   14.0624 C.3     1  UNL1        0.1037
     27 C          63.9359   83.7251   13.9554 C.2     1  UNL1        0.2175
     28 N          64.5482   84.7857   14.8215 N.2     1  UNL1       -0.0375
@<TRIPOS>BOND
     1    15    16    1
     2    16    14    1
     3    14    13    1
     4    13    12    1
     5    12     1    1
     6     1    19    1
     7    19    20    1
     8    20    21    2
     9    21    22    1
    10    22    23    2
    11    23    24    1
    12    24    25    2
    13    25    26    1
    14    26    27    1
    15    27    28    2
    16     2     1    1
    17     2     3    1
    18     3     4    1
    19     4     5    1
    20     5     6    1
    21     6     7   ar
    22     7     8   ar
    23     8     9   ar
    24     9    10   ar
    25    10    11   ar
    26    28    20    1
    27    11     2    1
    28    27    22    1
    29    11     6   ar
    30    15    17    1
    31    15    18    1
@<TRIPOS>MOLECULE
*****
 28 31 0 0 0
SMALL
GASTEIGER

@<TRIPOS>ATOM
      1 N          63.0102   84.0842   13.7732 N.3     1  UNL1       -0.2586
      2 C          63.2720   84.0211   12.2976 C.3     1  UNL1        0.0982
      3 C          64.1861   82.9695   11.7423 C.3     1  UNL1        0.0224
      4 C          64.4479   82.9065   10.2666 C.3     1  UNL1        0.0065
      5 C          63.7956   83.8951    9.3463 C.3     1  UNL1        0.0277
      6 C          62.8815   84.9468    9.9016 C.ar    1  UNL1       -0.0073
      7 C          62.2292   85.9355    8.9813 C.ar    1  UNL1       -0.0015
      8 C          61.3151   86.9871    9.5366 C.ar    1  UNL1        0.0203
      9 C          61.0533   87.0501   11.0122 C.ar    1  UNL1        0.0985
     10 N          61.7056   86.0615   11.9325 N.ar    1  UNL1       -0.2471
     11 C          62.6197   85.0098   11.3772 C.ar    1  UNL1        0.0695
     12 C          61.7431   83.5110   14.3353 C.3     1  UNL1        0.0730
     13 C          61.6731   82.0567   14.6960 C.3     1  UNL1        0.0188
     14 C          61.5259   81.0231   13.6190 C.3     1  UNL1        0.0183
     15 N          63.9243   80.1576   14.1175 N.3     1  UNL1       -0.3211
     16 C          62.6327   80.0434   13.3635 C.3     1  UNL1        0.0652
     17 H          64.5583   79.4159   13.8201 H       1  UNL1        0.1189
     18 H          63.7432   80.0695   15.1174 H       1  UNL1        0.1189
     19 C          64.0156   84.7203   14.6868 C.3     1  UNL1        0.1979
     20 C          63.9750   86.1995   14.9329 C.2     1  UNL1        0.3675
     21 N          63.4387   86.8747   16.1603 N.2     1  UNL1       -0.0337
     22 C          63.5958   88.3556   15.9808 C.2     1  UNL1        0.2318
     23 C          63.2439   89.5165   16.8631 C.2     1  UNL1        0.0498
     24 C          63.5254   90.9174   16.4070 C.2     1  UNL1       -0.0002
     25 C          64.1588   91.1575   15.0687 C.2     1  UNL1       -0.0172
     26 C          64.5107   89.9966   14.1864 C.3     1  UNL1        0.1037
     27 C          64.2292   88.5957   14.6425 C.2     1  UNL1        0.2175
     28 N          64.4636   87.2631   13.9948 N.2     1  UNL1       -0.0375
@<TRIPOS>BOND
     1    15    16    1
     2    16    14    1
     3    14    13    1
     4    13    12    1
     5    12     1    1
     6     1    19    1
     7    19    20    1
     8    20    21    2
     9    21    22    1
    10    22    23    2
    11    23    24    1
    12    24    25    2
    13    25    26    1
    14    26    27    1
    15    27    28    2
    16     2     1    1
    17     2     3    1
    18     3     4    1
    19     4     5    1
    20     5     6    1
    21     6     7   ar
    22     7     8   ar
    23     8     9   ar
    24     9    10   ar
    25    10    11   ar
    26    28    20    1
    27    11     2    1
    28    27    22    1
    29    11     6   ar
    30    15    17    1
    31    15    18    1
@<TRIPOS>MOLECULE
*****
 28 31 0 0 0
SMALL
GASTEIGER

@<TRIPOS>ATOM
      1 N          62.3606   87.1263   11.6952 N.3     1  UNL1       -0.2586
      2 C          62.7126   88.5654   11.4609 C.3     1  UNL1        0.0982
      3 C          62.3412   89.2274   10.1672 C.3     1  UNL1        0.0224
      4 C          62.6933   90.6665    9.9329 C.3     1  UNL1        0.0065
      5 C          63.4168   91.4437   10.9923 C.3     1  UNL1        0.0277
      6 C          63.7883   90.7818   12.2862 C.ar    1  UNL1       -0.0073
      7 C          64.5118   91.5590   13.3456 C.ar    1  UNL1       -0.0015
      8 C          64.8832   90.8970   14.6393 C.ar    1  UNL1        0.0203
      9 C          64.5312   89.4579   14.8736 C.ar    1  UNL1        0.0985
     10 N          63.8076   88.6807   13.8142 N.ar    1  UNL1       -0.2471
     11 C          63.4362   89.3426   12.5205 C.ar    1  UNL1        0.0695
     12 C          61.2163   86.5035   10.9518 C.3     1  UNL1        0.0730
     13 C          61.4588   85.8169    9.6404 C.3     1  UNL1        0.0188
     14 C          60.7755   86.3085    8.3988 C.3     1  UNL1        0.0183
     15 N          58.3026   86.7481    7.7343 N.3     1  UNL1       -0.3211
     16 C          59.5288   87.1357    8.5064 C.3     1  UNL1        0.0652
     17 H          57.5556   87.4160    7.9247 H       1  UNL1        0.1189
     18 H          58.0040   85.8145    8.0166 H       1  UNL1        0.1189
     19 C          63.1528   86.3099   12.6730 C.3     1  UNL1        0.1979
     20 C          62.9593   84.8240   12.7397 C.2     1  UNL1        0.3675
     21 N          62.3633   84.0630   13.8868 N.2     1  UNL1       -0.0337
     22 C          62.3635   82.6068   13.5271 C.2     1  UNL1        0.2318
     23 C          61.8978   81.3895   14.2695 C.2     1  UNL1        0.0498
     24 C          62.0284   80.0331   13.6426 C.2     1  UNL1       -0.0002
     25 C          62.6246   79.8940   12.2732 C.2     1  UNL1       -0.0172
     26 C          63.0902   81.1113   11.5308 C.3     1  UNL1        0.1037
     27 C          62.9597   82.4677   12.1577 C.2     1  UNL1        0.2175
     28 N          63.3279   83.8380   11.6710 N.2     1  UNL1       -0.0375
@<TRIPOS>BOND
     1    15    16    1
     2    16    14    1
     3    14    13    1
     4    13    12    1
     5    12     1    1
     6     1    19    1
     7    19    20    1
     8    20    21    2
     9    21    22    1
    10    22    23    2
    11    23    24    1
    12    24    25    2
    13    25    26    1
    14    26    27    1
    15    27    28    2
    16     2     1    1
    17     2     3    1
    18     3     4    1
    19     4     5    1
    20     5     6    1
    21     6     7   ar
    22     7     8   ar
    23     8     9   ar
    24     9    10   ar
    25    10    11   ar
    26    28    20    1
    27    11     2    1
    28    27    22    1
    29    11     6   ar
    30    15    17    1
    31    15    18    1
@<TRIPOS>MOLECULE
*****
 28 31 0 0 0
SMALL
GASTEIGER

@<TRIPOS>ATOM
      1 N          61.4759   87.5761   11.2326 N.3     1  UNL1       -0.2586
      2 C          62.1673   86.4054   10.5989 C.3     1  UNL1        0.0982
      3 C          62.4558   86.4115    9.1270 C.3     1  UNL1        0.0224
      4 C          63.1471   85.2408    8.4934 C.3     1  UNL1        0.0065
      5 C          63.5500   84.0640    9.3317 C.3     1  UNL1        0.0277
      6 C          63.2615   84.0579   10.8038 C.ar    1  UNL1       -0.0073
      7 C          63.6643   82.8811   11.6421 C.ar    1  UNL1       -0.0015
      8 C          63.3759   82.8751   13.1140 C.ar    1  UNL1        0.0203
      9 C          62.6845   84.0458   13.7477 C.ar    1  UNL1        0.0985
     10 N          62.2817   85.2225   12.9093 N.ar    1  UNL1       -0.2471
     11 C          62.5701   85.2286   11.4374 C.ar    1  UNL1        0.0695
     12 C          60.1777   88.0746   10.6705 C.3     1  UNL1        0.0730
     13 C          60.1774   89.1392    9.6138 C.3     1  UNL1        0.0188
     14 C          59.7999   88.7958    8.2032 C.3     1  UNL1        0.0183
     15 N          58.2741   86.7323    7.7983 N.3     1  UNL1       -0.3211
     16 C          59.6361   87.3606    7.7990 C.3     1  UNL1        0.0652
     17 H          58.3483   85.7600    7.4992 H       1  UNL1        0.1189
     18 H          57.6657   87.2401    7.1562 H       1  UNL1        0.1189
     19 C          62.0829   88.2484   12.4283 C.3     1  UNL1        0.1979
     20 C          62.9567   89.4542   12.2477 C.2     1  UNL1        0.3675
     21 N          63.0866   90.2693   10.9953 N.2     1  UNL1       -0.0337
     22 C          64.0641   91.3755   11.2613 C.2     1  UNL1        0.2318
     23 C          64.5836   92.4854   10.3965 C.2     1  UNL1        0.0498
     24 C          65.5774   93.4639   10.9486 C.2     1  UNL1       -0.0002
     25 C          66.0517   93.3325   12.3655 C.2     1  UNL1       -0.0172
     26 C          65.5322   92.2225   13.2304 C.3     1  UNL1        0.1037
     27 C          64.5384   91.2440   12.6783 C.2     1  UNL1        0.2175
     28 N          63.8540   90.0566   13.2880 N.2     1  UNL1       -0.0375
@<TRIPOS>BOND
     1    15    16    1
     2    16    14    1
     3    14    13    1
     4    13    12    1
     5    12     1    1
     6     1    19    1
     7    19    20    1
     8    20    21    2
     9    21    22    1
    10    22    23    2
    11    23    24    1
    12    24    25    2
    13    25    26    1
    14    26    27    1
    15    27    28    2
    16     2     1    1
    17     2     3    1
    18     3     4    1
    19     4     5    1
    20     5     6    1
    21     6     7   ar
    22     7     8   ar
    23     8     9   ar
    24     9    10   ar
    25    10    11   ar
    26    28    20    1
    27    11     2    1
    28    27    22    1
    29    11     6   ar
    30    15    17    1
    31    15    18    1
@<TRIPOS>MOLECULE
*****
 28 31 0 0 0
SMALL
GASTEIGER

@<TRIPOS>ATOM
      1 N          63.0655   90.7026   12.4202 N.3     1  UNL1       -0.2586
      2 C          64.2576   91.5765   12.1648 C.3     1  UNL1        0.0982
      3 C          64.6125   91.9698   10.7615 C.3     1  UNL1        0.0224
      4 C          65.8046   92.8437   10.5062 C.3     1  UNL1        0.0065
      5 C          66.6418   93.3243   11.6541 C.3     1  UNL1        0.0277
      6 C          66.2870   92.9311   13.0576 C.ar    1  UNL1       -0.0073
      7 C          67.1242   93.4118   14.2056 C.ar    1  UNL1       -0.0015
      8 C          66.7694   93.0186   15.6089 C.ar    1  UNL1        0.0203
      9 C          65.5773   92.1447   15.8643 C.ar    1  UNL1        0.0985
     10 N          64.7400   91.6640   14.7163 N.ar    1  UNL1       -0.2471
     11 C          65.0949   92.0572   13.3129 C.ar    1  UNL1        0.0695
     12 C          63.0768   89.7348   13.5661 C.3     1  UNL1        0.0730
     13 C          63.8866   88.4754   13.4762 C.3     1  UNL1        0.0188
     14 C          64.4328   87.8444   14.7226 C.3     1  UNL1        0.0183
     15 N          63.5874   85.5220   13.9217 N.3     1  UNL1       -0.3211
     16 C          64.3276   86.3612   14.9205 C.3     1  UNL1        0.0652
     17 H          63.6157   84.5444   14.2115 H       1  UNL1        0.1189
     18 H          64.0257   85.6179   13.0057 H       1  UNL1        0.1189
     19 C          61.8622   90.7966   11.5296 C.3     1  UNL1        0.1979
     20 C          61.5067   89.6532   10.6260 C.2     1  UNL1        0.3675
     21 N          62.3837   88.4804   10.3015 N.2     1  UNL1       -0.0337
     22 C          61.6308   87.5842    9.3633 C.2     1  UNL1        0.2318
     23 C          61.9942   86.2846    8.7085 C.2     1  UNL1        0.0498
     24 C          61.0152   85.6039    7.7984 C.2     1  UNL1       -0.0002
     25 C          59.6730   86.2229    7.5431 C.2     1  UNL1       -0.0172
     26 C          59.3096   87.5226    8.1979 C.3     1  UNL1        0.1037
     27 C          60.2886   88.2032    9.1080 C.2     1  UNL1        0.2175
     28 N          60.2118   89.4820    9.8884 N.2     1  UNL1       -0.0375
@<TRIPOS>BOND
     1    15    16    1
     2    16    14    1
     3    14    13    1
     4    13    12    1
     5    12     1    1
     6     1    19    1
     7    19    20    1
     8    20    21    2
     9    21    22    1
    10    22    23    2
    11    23    24    1
    12    24    25    2
    13    25    26    1
    14    26    27    1
    15    27    28    2
    16     2     1    1
    17     2     3    1
    18     3     4    1
    19     4     5    1
    20     5     6    1
    21     6     7   ar
    22     7     8   ar
    23     8     9   ar
    24     9    10   ar
    25    10    11   ar
    26    28    20    1
    27    11     2    1
    28    27    22    1
    29    11     6   ar
    30    15    17    1
    31    15    18    1
@<TRIPOS>MOLECULE
*****
 28 31 0 0 0
SMALL
GASTEIGER

@<TRIPOS>ATOM
      1 N          65.3560   92.4162   12.0600 N.3     1  UNL1       -0.2586
      2 C          66.3851   92.7613   11.0247 C.3     1  UNL1        0.0982
      3 C          67.4045   91.7415   10.6115 C.3     1  UNL1        0.0224
      4 C          68.4336   92.0866    9.5762 C.3     1  UNL1        0.0065
      5 C          68.4434   93.4514    8.9541 C.3     1  UNL1        0.0277
      6 C          67.4239   94.4713    9.3674 C.ar    1  UNL1       -0.0073
      7 C          67.4337   95.8362    8.7453 C.ar    1  UNL1       -0.0015
      8 C          66.4143   96.8560    9.1586 C.ar    1  UNL1        0.0203
      9 C          65.3852   96.5109   10.1938 C.ar    1  UNL1        0.0985
     10 N          65.3754   95.1460   10.8159 N.ar    1  UNL1       -0.2471
     11 C          66.3948   94.1262   10.4026 C.ar    1  UNL1        0.0695
     12 C          65.7503   92.3107   13.5034 C.3     1  UNL1        0.0730
     13 C          66.6250   93.3613   14.1207 C.3     1  UNL1        0.0188
     14 C          67.2919   93.1022   15.4391 C.3     1  UNL1        0.0183
     15 N          69.4573   92.3516   14.2153 N.3     1  UNL1       -0.3211
     16 C          68.7378   92.7054   15.4830 C.3     1  UNL1        0.0652
     17 H          70.4244   92.1086   14.4297 H       1  UNL1        0.1189
     18 H          69.4400   93.1498   13.5805 H       1  UNL1        0.1189
     19 C          63.9326   92.1766   11.6518 C.3     1  UNL1        0.1979
     20 C          63.4427   90.7770   11.4257 C.2     1  UNL1        0.3675
     21 N          62.7189   90.2821   10.2086 N.2     1  UNL1       -0.0337
     22 C          62.4194   88.8258   10.4076 C.2     1  UNL1        0.2318
     23 C          61.7258   87.8164    9.5417 C.2     1  UNL1        0.0498
     24 C          61.5709   86.4018   10.0158 C.2     1  UNL1       -0.0002
     25 C          62.1095   85.9967   11.3559 C.2     1  UNL1       -0.0172
     26 C          62.8031   87.0061   12.2218 C.3     1  UNL1        0.1037
     27 C          62.9581   88.4207   11.7476 C.2     1  UNL1        0.2175
     28 N          63.5905   89.6266   12.3769 N.2     1  UNL1       -0.0375
@<TRIPOS>BOND
     1    15    16    1
     2    16    14    1
     3    14    13    1
     4    13    12    1
     5    12     1    1
     6     1    19    1
     7    19    20    1
     8    20    21    2
     9    21    22    1
    10    22    23    2
    11    23    24    1
    12    24    25    2
    13    25    26    1
    14    26    27    1
    15    27    28    2
    16     2     1    1
    17     2     3    1
    18     3     4    1
    19     4     5    1
    20     5     6    1
    21     6     7   ar
    22     7     8   ar
    23     8     9   ar
    24     9    10   ar
    25    10    11   ar
    26    28    20    1
    27    11     2    1
    28    27    22    1
    29    11     6   ar
    30    15    17    1
    31    15    18    1
@<TRIPOS>MOLECULE
*****
 28 31 0 0 0
SMALL
GASTEIGER

@<TRIPOS>ATOM
      1 N          62.0661   86.0052   10.2580 N.3     1  UNL1       -0.2586
      2 C          62.8369   84.7811   10.6548 C.3     1  UNL1        0.0982
      3 C          63.5645   83.9828    9.6140 C.3     1  UNL1        0.0224
      4 C          64.3352   82.7587   10.0109 C.3     1  UNL1        0.0065
      5 C          64.3784   82.3328   11.4485 C.3     1  UNL1        0.0277
      6 C          63.6508   83.1311   12.4893 C.ar    1  UNL1       -0.0073
      7 C          63.6940   82.7053   13.9270 C.ar    1  UNL1       -0.0015
      8 C          62.9664   83.5036   14.9677 C.ar    1  UNL1        0.0203
      9 C          62.1956   84.7277   14.5709 C.ar    1  UNL1        0.0985
     10 N          62.1524   85.1535   13.1333 N.ar    1  UNL1       -0.2471
     11 C          62.8800   84.3553   12.0925 C.ar    1  UNL1        0.0695
     12 C          61.7381   86.2499    8.8149 C.3     1  UNL1        0.0730
     13 C          60.3369   86.0472    8.3194 C.3     1  UNL1        0.0188
     14 C          59.3391   87.1633    8.4142 C.3     1  UNL1        0.0183
     15 N          60.2328   89.5761    8.7737 N.3     1  UNL1       -0.3211
     16 C          59.6759   88.5188    7.8672 C.3     1  UNL1        0.0652
     17 H          60.4022   90.4279    8.2387 H       1  UNL1        0.1189
     18 H          61.1099   89.2491    9.1789 H       1  UNL1        0.1189
     19 C          61.6233   86.9846   11.3044 C.3     1  UNL1        0.1979
     20 C          62.4142   88.2368   11.5421 C.2     1  UNL1        0.3675
     21 N          63.1192   88.6063   12.8135 N.2     1  UNL1       -0.0337
     22 C          63.7797   89.9372   12.6075 C.2     1  UNL1        0.2318
     23 C          64.6130   90.7950   13.5128 C.2     1  UNL1        0.0498
     24 C          65.1495   92.1059   13.0193 C.2     1  UNL1       -0.0002
     25 C          64.8528   92.5590   11.6205 C.2     1  UNL1       -0.0172
     26 C          64.0195   91.7011   10.7152 C.3     1  UNL1        0.1037
     27 C          63.4829   90.3902   11.2087 C.2     1  UNL1        0.2175
     28 N          62.6390   89.3394   10.5502 N.2     1  UNL1       -0.0375
@<TRIPOS>BOND
     1    15    16    1
     2    16    14    1
     3    14    13    1
     4    13    12    1
     5    12     1    1
     6     1    19    1
     7    19    20    1
     8    20    21    2
     9    21    22    1
    10    22    23    2
    11    23    24    1
    12    24    25    2
    13    25    26    1
    14    26    27    1
    15    27    28    2
    16     2     1    1
    17     2     3    1
    18     3     4    1
    19     4     5    1
    20     5     6    1
    21     6     7   ar
    22     7     8   ar
    23     8     9   ar
    24     9    10   ar
    25    10    11   ar
    26    28    20    1
    27    11     2    1
    28    27    22    1
    29    11     6   ar
    30    15    17    1
    31    15    18    1
@<TRIPOS>MOLECULE
*****
 28 31 0 0 0
SMALL
GASTEIGER

@<TRIPOS>ATOM
      1 N          63.4829   90.6403   11.7957 N.3     1  UNL1       -0.2586
      2 C          64.5080   91.7353   11.8054 C.3     1  UNL1        0.0982
      3 C          64.8759   92.4296   10.5278 C.3     1  UNL1        0.0224
      4 C          65.9009   93.5247   10.5375 C.3     1  UNL1        0.0065
      5 C          66.5582   93.9254   11.8249 C.3     1  UNL1        0.0277
      6 C          66.1903   93.2310   13.1027 C.ar    1  UNL1       -0.0073
      7 C          66.8475   93.6317   14.3900 C.ar    1  UNL1       -0.0015
      8 C          66.4797   92.9374   15.6677 C.ar    1  UNL1        0.0203
      9 C          65.4546   91.8424   15.6580 C.ar    1  UNL1        0.0985
     10 N          64.7974   91.4417   14.3706 N.ar    1  UNL1       -0.2471
     11 C          65.1652   92.1360   13.0929 C.ar    1  UNL1        0.0695
     12 C          62.8045   90.2594   10.5133 C.3     1  UNL1        0.0730
     13 C          61.3119   90.3535   10.3978 C.3     1  UNL1        0.0188
     14 C          60.5574   89.3432    9.5852 C.3     1  UNL1        0.0183
     15 N          59.8590   88.0035   11.6989 N.3     1  UNL1       -0.3211
     16 C          60.0963   88.0642   10.2190 C.3     1  UNL1        0.0652
     17 H          59.5518   87.0654   11.9557 H       1  UNL1        0.1189
     18 H          59.1395   88.6792   11.9558 H       1  UNL1        0.1189
     19 C          63.1362   89.9261   13.0685 C.3     1  UNL1        0.1979
     20 C          63.3590   88.4472   13.1833 C.2     1  UNL1        0.3675
     21 N          62.8468   87.4024   12.2367 N.2     1  UNL1       -0.0337
     22 C          63.3043   86.0629   12.7332 C.2     1  UNL1        0.2318
     23 C          63.0997   84.6736   12.2059 C.2     1  UNL1        0.0498
     24 C          63.6901   83.5014   12.9319 C.2     1  UNL1       -0.0002
     25 C          64.4850   83.7184   14.1853 C.2     1  UNL1       -0.0172
     26 C          64.6896   85.1076   14.7127 C.3     1  UNL1        0.1037
     27 C          64.0992   86.2799   13.9866 C.2     1  UNL1        0.2175
     28 N          64.1331   87.7535   14.2648 N.2     1  UNL1       -0.0375
@<TRIPOS>BOND
     1    15    16    1
     2    16    14    1
     3    14    13    1
     4    13    12    1
     5    12     1    1
     6     1    19    1
     7    19    20    1
     8    20    21    2
     9    21    22    1
    10    22    23    2
    11    23    24    1
    12    24    25    2
    13    25    26    1
    14    26    27    1
    15    27    28    2
    16     2     1    1
    17     2     3    1
    18     3     4    1
    19     4     5    1
    20     5     6    1
    21     6     7   ar
    22     7     8   ar
    23     8     9   ar
    24     9    10   ar
    25    10    11   ar
    26    28    20    1
    27    11     2    1
    28    27    22    1
    29    11     6   ar
    30    15    17    1
    31    15    18    1
