@<TRIPOS>MOLECULE
*****
 58 62 0 0 0
SMALL
GASTEIGER

@<TRIPOS>ATOM
      1 C          62.8182   84.6967   10.8448 C.3     1  UNL1        0.1041
      2 C          63.1825   85.3592   13.3304 C.2     1  UNL1        0.2405
      3 O          61.7318   85.1017   13.6117 O.2     1  UNL1       -0.2733
      4 N          63.7257   85.1566   11.9470 N.am    1  UNL1       -0.3019
      5 H          64.6779   85.3256   11.7623 H       1  UNL1        0.1495
      6 C          64.0901   85.8192   14.4327 C.3     1  UNL1        0.1510
      7 C          63.2750   87.4765   16.2599 C.2     1  UNL1        0.4023
      8 O          62.6821   86.3347   17.0310 O.2     1  UNL1       -0.2264
      9 N          63.9790   87.2187   14.9607 N.am    1  UNL1       -0.2640
     10 H          64.3682   87.9681   14.4546 H       1  UNL1        0.1532
     11 O          63.1639   88.8761   16.7880 O.3     1  UNL1       -0.4280
     12 C          63.1851   90.0390   15.8407 C.3     1  UNL1        0.2561
     13 C          66.5290   91.8943   15.1760 C.ar    1  UNL1        0.0876
     14 N          65.5786   90.7671   14.8994 N.ar    1  UNL1       -0.2433
     15 C          64.3822   90.9412   15.7875 C.ar    1  UNL1        0.1094
     16 C          64.5932   92.1758   16.6128 C.ar    1  UNL1        0.0549
     17 S          65.9200   92.7649   16.2349 S.2     1  UNL1       -0.0705
     18 C          69.0008   92.6861   15.2911 C.3     1  UNL1        0.0069
     19 C          67.8554   92.1125   14.5106 C.3     1  UNL1        0.0465
     20 C          68.0365   91.7571   13.0645 C.3     1  UNL1        0.0069
     21 C          65.1087   84.8795   15.0068 C.3     1  UNL1        0.0270
     22 C          66.5695   85.2050   14.9069 C.3     1  UNL1        0.0022
     23 C          64.6664   83.6145   15.6807 C.3     1  UNL1        0.0022
     24 C          62.2691   85.6884    9.8624 C.3     1  UNL1        0.1445
     25 O          62.8375   85.7643    8.4762 O.3     1  UNL1       -0.3813
     26 H          63.5465   85.1092    8.3812 H       1  UNL1        0.2105
     27 C          61.1519   86.6042   10.2661 C.3     1  UNL1        0.1038
     28 N          60.4591   87.4427    9.2331 N.3     1  UNL1       -0.2620
     29 C          59.6856   86.7851    8.1289 C.3     1  UNL1        0.0901
     30 C          58.9929   87.6237    7.0960 C.3     1  UNL1        0.0899
     31 N          59.0736   89.1198    7.1673 N.3     1  UNL1       -0.2661
     32 C          59.8471   89.7774    8.2715 C.3     1  UNL1        0.0980
     33 C          60.5398   88.9388    9.3044 C.3     1  UNL1        0.1510
     34 C          61.3133   89.5965   10.4087 C.2     1  UNL1        0.2383
     35 O          60.6507   89.8757   11.7252 O.2     1  UNL1       -0.2736
     36 N          62.7492   89.9749   10.1965 N.am    1  UNL1       -0.3063
     37 H          63.1840   89.7917    9.3325 H       1  UNL1        0.1493
     38 C          63.5225   90.6326   11.3008 C.3     1  UNL1        0.0569
     39 C          63.3248   89.4199   12.1613 C.3     1  UNL1        0.0196
     40 C          63.7202   91.8451   10.4402 C.3     1  UNL1        0.0196
     41 C          64.2958   91.2901   12.4051 C.3     1  UNL1        0.0196
     42 C          58.3809   89.9584    6.1343 C.3     1  UNL1        0.0993
     43 C          59.1859   90.7939    5.1836 C.ar    1  UNL1       -0.0029
     44 C          58.5190   91.8751    4.3859 C.ar    1  UNL1        0.0004
     45 C          59.3240   92.7106    3.4352 C.ar    1  UNL1        0.0399
     46 C          60.7959   92.4649    3.2821 C.ar    1  UNL1        0.1764
     47 C          61.4627   91.3837    4.0798 C.ar    1  UNL1        0.1762
     48 C          60.6577   90.5481    5.0305 C.ar    1  UNL1        0.0373
     49 O          62.9189   91.3734    3.7201 O.3     1  UNL1       -0.4346
     50 C          63.1521   92.4482    2.7003 C.3     1  UNL1        0.4294
     51 O          61.8400   93.1228    2.4295 O.3     1  UNL1       -0.4346
     52 C          62.4596   83.2451   10.7251 C.3     1  UNL1        0.0484
     53 C          62.7310   82.3090   11.8653 C.ar    1  UNL1       -0.0204
     54 C          64.1437   81.9582   12.2277 C.ar    1  UNL1       -0.0042
     55 C          64.4152   81.0222   13.3678 C.ar    1  UNL1       -0.0003
     56 C          63.2740   80.4368   14.1457 C.ar    1  UNL1       -0.0000
     57 C          61.8613   80.7876   13.7833 C.ar    1  UNL1       -0.0003
     58 C          61.5898   81.7237   12.6431 C.ar    1  UNL1       -0.0042
@<TRIPOS>BOND
     1    18    19    1
     2    19    20    1
     3    19    13    1
     4    13    14   ar
     5    14    15   ar
     6    15    12    1
     7    12    11    1
     8    11     7    1
     9     7     8    2
    10     7     9   am
    11     6     9    1
    12     6     2    1
    13     2     3    2
    14     2     4   am
    15     4     1    1
    16     1    52    1
    17    52    53    1
    18    53    54   ar
    19    54    55   ar
    20    55    56   ar
    21    56    57   ar
    22    57    58   ar
    23     1    24    1
    24    24    25    1
    25    24    27    1
    26    27    28    1
    27    28    29    1
    28    29    30    1
    29    30    31    1
    30    31    42    1
    31    42    43    1
    32    43    44   ar
    33    44    45   ar
    34    45    46   ar
    35    46    47   ar
    36    47    48   ar
    37    47    49    1
    38    49    50    1
    39    50    51    1
    40    31    32    1
    41    32    33    1
    42    33    34    1
    43    34    35    2
    44    34    36   am
    45    36    38    1
    46    38    39    1
    47    38    40    1
    48    38    41    1
    49     6    21    1
    50    21    22    1
    51    21    23    1
    52    15    16   ar
    53    16    17   ar
    54    17    13   ar
    55    58    53   ar
    56    33    28    1
    57    48    43   ar
    58    51    46    1
    59     9    10    1
    60     4     5    1
    61    25    26    1
    62    36    37    1
@<TRIPOS>MOLECULE
*****
 58 62 0 0 0
SMALL
GASTEIGER

@<TRIPOS>ATOM
      1 C          62.4874   85.6731   11.5627 C.3     1  UNL1        0.1041
      2 C          63.5263   87.2934   13.3077 C.2     1  UNL1        0.2405
      3 O          63.8678   88.2568   12.2099 O.2     1  UNL1       -0.2733
      4 N          62.8361   86.0015   12.9841 N.am    1  UNL1       -0.3019
      5 H          62.6120   85.3692   13.7047 H       1  UNL1        0.1495
      6 C          63.8751   87.6219   14.7292 C.3     1  UNL1        0.1510
      7 C          63.2247   89.9284   15.7327 C.2     1  UNL1        0.4023
      8 O          61.8336   89.4268   15.9839 O.2     1  UNL1       -0.2264
      9 N          64.2455   89.0259   15.1054 N.am    1  UNL1       -0.2640
     10 H          65.1585   89.3551   14.9405 H       1  UNL1        0.1532
     11 O          63.5951   91.3324   16.1088 O.3     1  UNL1       -0.4280
     12 C          65.0316   91.6899   16.3509 C.3     1  UNL1        0.2561
     13 C          66.7879   92.7098   13.0432 C.ar    1  UNL1        0.0876
     14 N          65.5739   92.6688   13.9234 N.ar    1  UNL1       -0.2433
     15 C          65.9440   91.9563   15.1905 C.ar    1  UNL1        0.1094
     16 C          67.3866   91.5569   15.0934 C.ar    1  UNL1        0.0549
     17 S          67.9082   92.0226   13.7663 S.2     1  UNL1       -0.0705
     18 C          66.3377   94.7139   11.4525 C.3     1  UNL1        0.0069
     19 C          66.8676   93.3291   11.6795 C.3     1  UNL1        0.0465
     20 C          67.4772   92.5636   10.5425 C.3     1  UNL1        0.0069
     21 C          63.8535   86.5463   15.7745 C.3     1  UNL1        0.0270
     22 C          64.6569   85.2947   15.5794 C.3     1  UNL1        0.0022
     23 C          63.0286   86.7222   17.0148 C.3     1  UNL1        0.0022
     24 C          62.0254   86.7570   10.6343 C.3     1  UNL1        0.1445
     25 O          63.0188   87.4844    9.7774 O.3     1  UNL1       -0.3813
     26 H          63.9078   87.1343    9.9447 H       1  UNL1        0.2105
     27 C          60.5701   87.1133   10.5627 C.3     1  UNL1        0.1038
     28 N          60.0344   87.8417    9.3658 N.3     1  UNL1       -0.2620
     29 C          59.3697   87.0784    8.2588 C.3     1  UNL1        0.0901
     30 C          58.8340   87.8069    7.0619 C.3     1  UNL1        0.0899
     31 N          58.9630   89.2986    6.9721 N.3     1  UNL1       -0.2661
     32 C          59.6277   90.0619    8.0792 C.3     1  UNL1        0.0980
     33 C          60.1634   89.3334    9.2760 C.3     1  UNL1        0.1510
     34 C          60.8282   90.0969   10.3830 C.2     1  UNL1        0.2383
     35 O          59.9978   90.7443   11.4513 O.2     1  UNL1       -0.2736
     36 N          62.3232   90.2128   10.4217 N.am    1  UNL1       -0.3063
     37 H          62.8682   89.7879    9.7206 H       1  UNL1        0.1493
     38 C          62.9878   90.9762   11.5288 C.3     1  UNL1        0.0569
     39 C          62.1217   90.2744   12.5325 C.3     1  UNL1        0.0196
     40 C          63.8537   91.6780   10.5250 C.3     1  UNL1        0.0196
     41 C          63.6523   91.7396   12.6358 C.3     1  UNL1        0.0196
     42 C          58.4273   90.0271    5.7753 C.3     1  UNL1        0.0993
     43 C          59.3495   90.8447    4.9202 C.ar    1  UNL1       -0.0029
     44 C          60.8210   90.5538    4.9134 C.ar    1  UNL1        0.0004
     45 C          61.7431   91.3715    4.0584 C.ar    1  UNL1        0.0399
     46 C          61.1937   92.4800    3.2101 C.ar    1  UNL1        0.1764
     47 C          59.7223   92.7708    3.2169 C.ar    1  UNL1        0.1762
     48 C          58.8000   91.9532    4.0720 C.ar    1  UNL1        0.0373
     49 O          59.4722   93.9183    2.2838 O.3     1  UNL1       -0.4346
     50 C          60.7891   94.3366    1.7003 C.3     1  UNL1        0.4294
     51 O          61.8531   93.4477    2.2727 O.3     1  UNL1       -0.4346
     52 C          62.6006   84.2610   11.0697 C.3     1  UNL1        0.0484
     53 C          62.5801   83.1220   12.0455 C.ar    1  UNL1       -0.0204
     54 C          62.8013   81.7185   11.5647 C.ar    1  UNL1       -0.0042
     55 C          62.7808   80.5794   12.5404 C.ar    1  UNL1       -0.0003
     56 C          62.5390   80.8439   13.9970 C.ar    1  UNL1       -0.0000
     57 C          62.3177   82.2474   14.4778 C.ar    1  UNL1       -0.0003
     58 C          62.3382   83.3865   13.5020 C.ar    1  UNL1       -0.0042
@<TRIPOS>BOND
     1    18    19    1
     2    19    20    1
     3    19    13    1
     4    13    14   ar
     5    14    15   ar
     6    15    12    1
     7    12    11    1
     8    11     7    1
     9     7     8    2
    10     7     9   am
    11     6     9    1
    12     6     2    1
    13     2     3    2
    14     2     4   am
    15     4     1    1
    16     1    52    1
    17    52    53    1
    18    53    54   ar
    19    54    55   ar
    20    55    56   ar
    21    56    57   ar
    22    57    58   ar
    23     1    24    1
    24    24    25    1
    25    24    27    1
    26    27    28    1
    27    28    29    1
    28    29    30    1
    29    30    31    1
    30    31    42    1
    31    42    43    1
    32    43    44   ar
    33    44    45   ar
    34    45    46   ar
    35    46    47   ar
    36    47    48   ar
    37    47    49    1
    38    49    50    1
    39    50    51    1
    40    31    32    1
    41    32    33    1
    42    33    34    1
    43    34    35    2
    44    34    36   am
    45    36    38    1
    46    38    39    1
    47    38    40    1
    48    38    41    1
    49     6    21    1
    50    21    22    1
    51    21    23    1
    52    15    16   ar
    53    16    17   ar
    54    17    13   ar
    55    58    53   ar
    56    33    28    1
    57    48    43   ar
    58    51    46    1
    59     9    10    1
    60     4     5    1
    61    25    26    1
    62    36    37    1
@<TRIPOS>MOLECULE
*****
 58 62 0 0 0
SMALL
GASTEIGER

@<TRIPOS>ATOM
      1 C          63.6099   90.5267   13.7391 C.3     1  UNL1        0.1041
      2 C          63.9717   88.2051   14.8476 C.2     1  UNL1        0.2405
      3 O          64.6912   87.7310   13.6198 O.2     1  UNL1       -0.2733
      4 N          63.4310   89.6030   14.9073 N.am    1  UNL1       -0.3019
      5 H          62.9587   89.9141   15.7131 H       1  UNL1        0.1495
      6 C          63.7928   87.2812   16.0158 C.3     1  UNL1        0.1510
      7 C          63.4342   84.7415   15.6016 C.2     1  UNL1        0.4023
      8 O          61.9861   84.9947   15.3033 O.2     1  UNL1       -0.2264
      9 N          64.3375   85.8848   15.9579 N.am    1  UNL1       -0.2640
     10 H          65.2879   85.7186   16.1537 H       1  UNL1        0.1532
     11 O          63.9788   83.3451   15.5437 O.3     1  UNL1       -0.4280
     12 C          63.9695   82.5896   14.2479 C.3     1  UNL1        0.2561
     13 C          60.7733   80.4046   13.9726 C.ar    1  UNL1        0.0876
     14 N          61.4858   81.6269   14.4711 N.ar    1  UNL1       -0.2433
     15 C          62.9030   81.5688   13.9826 C.ar    1  UNL1        0.1094
     16 C          63.0662   80.3106   13.1824 C.ar    1  UNL1        0.0549
     17 S          61.7500   79.5911   13.1762 S.2     1  UNL1       -0.0705
     18 C          58.2726   81.1026   14.0684 C.3     1  UNL1        0.0069
     19 C          59.3364   80.0569   14.2261 C.3     1  UNL1        0.0465
     20 C          58.9632   78.6634   14.6374 C.3     1  UNL1        0.0069
     21 C          63.0693   87.7538   17.2418 C.3     1  UNL1        0.0270
     22 C          62.7511   89.2099   17.4102 C.3     1  UNL1        0.0022
     23 C          62.6640   86.7703   18.2994 C.3     1  UNL1        0.0022
     24 C          63.1804   90.0943   12.3685 C.3     1  UNL1        0.1445
     25 O          63.8543   90.6659   11.1563 O.3     1  UNL1       -0.3813
     26 H          64.5390   91.2946   11.4332 H       1  UNL1        0.2105
     27 C          62.0772   89.0905   12.2100 C.3     1  UNL1        0.1038
     28 N          61.3157   89.0103   10.9201 N.3     1  UNL1       -0.2620
     29 C          60.5385   90.1972   10.4329 C.3     1  UNL1        0.0901
     30 C          59.7771   90.1169    9.1430 C.3     1  UNL1        0.0899
     31 N          59.7929   88.8499    8.3403 N.3     1  UNL1       -0.2661
     32 C          60.5701   87.6631    8.8275 C.3     1  UNL1        0.0980
     33 C          61.3316   87.7433   10.1174 C.3     1  UNL1        0.1510
     34 C          62.1088   86.5564   10.6045 C.2     1  UNL1        0.2383
     35 O          62.6491   86.5367   12.0037 O.2     1  UNL1       -0.2736
     36 N          62.3457   85.3893    9.6926 N.am    1  UNL1       -0.3063
     37 H          61.9910   85.4022    8.7743 H       1  UNL1        0.1493
     38 C          63.1229   84.2024   10.1798 C.3     1  UNL1        0.0569
     39 C          63.9211   84.2039    8.9097 C.3     1  UNL1        0.0196
     40 C          62.3247   84.2011   11.4497 C.3     1  UNL1        0.0196
     41 C          63.9001   83.0156   10.6669 C.3     1  UNL1        0.0196
     42 C          59.0315   88.7697    7.0504 C.3     1  UNL1        0.0993
     43 C          59.1005   89.9004    6.0672 C.ar    1  UNL1       -0.0029
     44 C          57.8681   90.6943    5.7496 C.ar    1  UNL1        0.0004
     45 C          57.9371   91.8250    4.7664 C.ar    1  UNL1        0.0399
     46 C          59.2386   92.1617    4.1007 C.ar    1  UNL1        0.1764
     47 C          60.4709   91.3678    4.4183 C.ar    1  UNL1        0.1762
     48 C          60.4019   90.2370    5.4016 C.ar    1  UNL1        0.0373
     49 O          61.6041   91.9282    3.6111 O.3     1  UNL1       -0.4346
     50 C          61.0722   93.0684    2.7946 C.3     1  UNL1        0.4294
     51 O          59.6102   93.2128    3.0972 O.3     1  UNL1       -0.4346
     52 C          64.2181   91.8828   13.9416 C.3     1  UNL1        0.0484
     53 C          65.6578   92.0066   14.3442 C.ar    1  UNL1       -0.0204
     54 C          66.0134   92.3641   15.7569 C.ar    1  UNL1       -0.0042
     55 C          67.4529   92.4878   16.1596 C.ar    1  UNL1       -0.0003
     56 C          68.5371   92.2540   15.1496 C.ar    1  UNL1       -0.0000
     57 C          68.1815   91.8965   13.7369 C.ar    1  UNL1       -0.0003
     58 C          66.7418   91.7728   13.3341 C.ar    1  UNL1       -0.0042
@<TRIPOS>BOND
     1    18    19    1
     2    19    20    1
     3    19    13    1
     4    13    14   ar
     5    14    15   ar
     6    15    12    1
     7    12    11    1
     8    11     7    1
     9     7     8    2
    10     7     9   am
    11     6     9    1
    12     6     2    1
    13     2     3    2
    14     2     4   am
    15     4     1    1
    16     1    52    1
    17    52    53    1
    18    53    54   ar
    19    54    55   ar
    20    55    56   ar
    21    56    57   ar
    22    57    58   ar
    23     1    24    1
    24    24    25    1
    25    24    27    1
    26    27    28    1
    27    28    29    1
    28    29    30    1
    29    30    31    1
    30    31    42    1
    31    42    43    1
    32    43    44   ar
    33    44    45   ar
    34    45    46   ar
    35    46    47   ar
    36    47    48   ar
    37    47    49    1
    38    49    50    1
    39    50    51    1
    40    31    32    1
    41    32    33    1
    42    33    34    1
    43    34    35    2
    44    34    36   am
    45    36    38    1
    46    38    39    1
    47    38    40    1
    48    38    41    1
    49     6    21    1
    50    21    22    1
    51    21    23    1
    52    15    16   ar
    53    16    17   ar
    54    17    13   ar
    55    58    53   ar
    56    33    28    1
    57    48    43   ar
    58    51    46    1
    59     9    10    1
    60     4     5    1
    61    25    26    1
    62    36    37    1
@<TRIPOS>MOLECULE
*****
 58 62 0 0 0
SMALL
GASTEIGER

@<TRIPOS>ATOM
      1 C          64.6442   91.8811   11.0050 C.3     1  UNL1        0.1041
      2 C          66.1416   91.8517   13.1278 C.2     1  UNL1        0.2405
      3 O          67.3666   91.9149   12.2646 O.2     1  UNL1       -0.2733
      4 N          64.7803   91.8348   12.4980 N.am    1  UNL1       -0.3019
      5 H          63.9762   91.7933   13.0646 H       1  UNL1        0.1495
      6 C          66.2778   91.8053   14.6210 C.3     1  UNL1        0.1510
      7 C          64.4950   91.5377   16.4919 C.2     1  UNL1        0.4023
      8 O          64.5373   93.0158   16.7436 O.2     1  UNL1       -0.2264
      9 N          65.3653   90.9325   15.4306 N.am    1  UNL1       -0.2640
     10 H          65.3376   89.9623   15.2654 H       1  UNL1        0.1532
     11 O          63.5825   90.6648   17.3015 O.3     1  UNL1       -0.4280
     12 C          62.6881   89.6750   16.6158 C.3     1  UNL1        0.2561
     13 C          63.9096   86.0088   16.2508 C.ar    1  UNL1        0.0876
     14 N          63.9111   87.4409   15.8043 N.ar    1  UNL1       -0.2433
     15 C          62.9871   88.2077   16.7034 C.ar    1  UNL1        0.1094
     16 C          62.4144   87.2495   17.7054 C.ar    1  UNL1        0.0549
     17 S          62.9846   85.8905   17.4257 S.2     1  UNL1       -0.0705
     18 C          65.9613   85.1889   14.8841 C.3     1  UNL1        0.0069
     19 C          64.6951   84.8913   15.6311 C.3     1  UNL1        0.0465
     20 C          64.2143   83.4761   15.7585 C.3     1  UNL1        0.0069
     21 C          67.3264   92.6319   15.3045 C.3     1  UNL1        0.0270
     22 C          67.4548   94.0923   14.9872 C.3     1  UNL1        0.0022
     23 C          68.2467   91.9980   16.3051 C.3     1  UNL1        0.0022
     24 C          63.3581   91.4631   10.3558 C.3     1  UNL1        0.1445
     25 O          63.1422   91.7092    8.8919 O.3     1  UNL1       -0.3813
     26 H          63.9251   92.1432    8.5181 H       1  UNL1        0.2105
     27 C          62.2880   90.7990   11.1705 C.3     1  UNL1        0.1038
     28 N          62.4859   89.3982   11.6694 N.3     1  UNL1       -0.2620
     29 C          63.5621   89.1041   12.6720 C.3     1  UNL1        0.0901
     30 C          63.7600   87.7034   13.1709 C.3     1  UNL1        0.0899
     31 N          62.8816   86.5968   12.6671 N.3     1  UNL1       -0.2661
     32 C          61.8054   86.8909   11.6644 C.3     1  UNL1        0.0980
     33 C          61.6076   88.2916   11.1656 C.3     1  UNL1        0.1510
     34 C          60.5313   88.5856   10.1629 C.2     1  UNL1        0.2383
     35 O          59.3508   89.4242   10.5540 O.2     1  UNL1       -0.2736
     36 N          60.6356   88.0409    8.7692 N.am    1  UNL1       -0.3063
     37 H          61.4104   87.4905    8.5124 H       1  UNL1        0.1493
     38 C          59.5593   88.3350    7.7666 C.3     1  UNL1        0.0569
     39 C          60.0584   89.7443    7.6443 C.3     1  UNL1        0.0196
     40 C          59.0603   86.9257    7.8890 C.3     1  UNL1        0.0196
     41 C          58.4831   88.6291    6.7640 C.3     1  UNL1        0.0196
     42 C          63.0795   85.1960   13.1659 C.3     1  UNL1        0.0993
     43 C          63.1694   84.0588   12.1920 C.ar    1  UNL1       -0.0029
     44 C          63.6059   84.3136   10.7797 C.ar    1  UNL1        0.0004
     45 C          63.6959   83.1763    9.8058 C.ar    1  UNL1        0.0399
     46 C          63.3494   81.7842   10.2442 C.ar    1  UNL1        0.1764
     47 C          62.9130   81.5294   11.6564 C.ar    1  UNL1        0.1762
     48 C          62.8230   82.6667   12.6304 C.ar    1  UNL1        0.0373
     49 O          62.6373   80.0619   11.7988 O.3     1  UNL1       -0.4346
     50 C          62.9033   79.4097   10.4746 C.3     1  UNL1        0.4294
     51 O          63.3434   80.4741    9.5137 O.3     1  UNL1       -0.4346
     52 C          65.7940   92.3455   10.1610 C.3     1  UNL1        0.0484
     53 C          66.1386   93.8041   10.1000 C.ar    1  UNL1       -0.0204
     54 C          67.2211   94.2810    9.1777 C.ar    1  UNL1       -0.0042
     55 C          67.5657   95.7396    9.1166 C.ar    1  UNL1       -0.0003
     56 C          66.8278   96.7213    9.9779 C.ar    1  UNL1       -0.0000
     57 C          65.7453   96.2443   10.9002 C.ar    1  UNL1       -0.0003
     58 C          65.4006   94.7857   10.9613 C.ar    1  UNL1       -0.0042
@<TRIPOS>BOND
     1    18    19    1
     2    19    20    1
     3    19    13    1
     4    13    14   ar
     5    14    15   ar
     6    15    12    1
     7    12    11    1
     8    11     7    1
     9     7     8    2
    10     7     9   am
    11     6     9    1
    12     6     2    1
    13     2     3    2
    14     2     4   am
    15     4     1    1
    16     1    52    1
    17    52    53    1
    18    53    54   ar
    19    54    55   ar
    20    55    56   ar
    21    56    57   ar
    22    57    58   ar
    23     1    24    1
    24    24    25    1
    25    24    27    1
    26    27    28    1
    27    28    29    1
    28    29    30    1
    29    30    31    1
    30    31    42    1
    31    42    43    1
    32    43    44   ar
    33    44    45   ar
    34    45    46   ar
    35    46    47   ar
    36    47    48   ar
    37    47    49    1
    38    49    50    1
    39    50    51    1
    40    31    32    1
    41    32    33    1
    42    33    34    1
    43    34    35    2
    44    34    36   am
    45    36    38    1
    46    38    39    1
    47    38    40    1
    48    38    41    1
    49     6    21    1
    50    21    22    1
    51    21    23    1
    52    15    16   ar
    53    16    17   ar
    54    17    13   ar
    55    58    53   ar
    56    33    28    1
    57    48    43   ar
    58    51    46    1
    59     9    10    1
    60     4     5    1
    61    25    26    1
    62    36    37    1
@<TRIPOS>MOLECULE
*****
 58 62 0 0 0
SMALL
GASTEIGER

@<TRIPOS>ATOM
      1 C          62.3818   90.4419   11.9103 C.3     1  UNL1        0.1041
      2 C          63.7435   89.6169   13.9633 C.2     1  UNL1        0.2405
      3 O          63.9063   88.2738   13.3156 O.2     1  UNL1       -0.2733
      4 N          62.9812   90.7010   13.2606 N.am    1  UNL1       -0.3019
      5 H          62.8743   91.5825   13.6858 H       1  UNL1        0.1495
      6 C          64.3430   89.8760   15.3137 C.3     1  UNL1        0.1510
      7 C          62.9274   88.4300   16.9432 C.2     1  UNL1        0.4023
      8 O          61.6756   89.0792   16.4318 O.2     1  UNL1       -0.2264
      9 N          64.2611   88.8284   16.3842 N.am    1  UNL1       -0.2640
     10 H          65.0826   88.4023   16.7198 H       1  UNL1        0.1532
     11 O          62.8455   87.3824   18.0136 O.3     1  UNL1       -0.4280
     12 C          62.2848   86.0278   17.6960 C.3     1  UNL1        0.2561
     13 C          63.1109   83.5446   14.8295 C.ar    1  UNL1        0.0876
     14 N          62.2323   83.9980   15.9575 N.ar    1  UNL1       -0.2433
     15 C          62.8361   85.2390   16.5454 C.ar    1  UNL1        0.1094
     16 C          64.0878   85.5525   15.7807 C.ar    1  UNL1        0.0549
     17 S          64.2577   84.5053   14.7202 S.2     1  UNL1       -0.0705
     18 C          63.8945   81.9649   12.9215 C.3     1  UNL1        0.0069
     19 C          62.8829   82.3417   13.9629 C.3     1  UNL1        0.0465
     20 C          61.6431   81.5156   14.1378 C.3     1  UNL1        0.0069
     21 C          65.0244   91.1826   15.5937 C.3     1  UNL1        0.0270
     22 C          64.3567   92.2051   16.4647 C.3     1  UNL1        0.0022
     23 C          66.3734   91.4667   15.0026 C.3     1  UNL1        0.0022
     24 C          61.1246   89.6324   11.7906 C.3     1  UNL1        0.1445
     25 O          59.9928   89.8587   12.7488 O.3     1  UNL1       -0.3813
     26 H          60.2356   90.5570   13.3768 H       1  UNL1        0.2105
     27 C          60.9992   88.5967   10.7129 C.3     1  UNL1        0.1038
     28 N          60.4603   88.9776    9.3658 N.3     1  UNL1       -0.2620
     29 C          59.9097   90.3545    9.1402 C.3     1  UNL1        0.0901
     30 C          59.3709   90.7353    7.7931 C.3     1  UNL1        0.0899
     31 N          59.3826   89.7393    6.6716 N.3     1  UNL1       -0.2661
     32 C          59.9333   88.3624    6.8973 C.3     1  UNL1        0.0980
     33 C          60.4721   87.9815    8.2444 C.3     1  UNL1        0.1510
     34 C          61.0227   86.6046    8.4699 C.2     1  UNL1        0.2383
     35 O          60.2785   85.4064    7.9594 O.2     1  UNL1       -0.2736
     36 N          62.3175   86.4257    9.2059 N.am    1  UNL1       -0.3063
     37 H          62.8059   87.2121    9.5409 H       1  UNL1        0.1493
     38 C          62.8680   85.0487    9.4314 C.3     1  UNL1        0.0569
     39 C          62.4663   85.1246   10.8746 C.3     1  UNL1        0.0196
     40 C          63.2696   84.9730    7.9881 C.3     1  UNL1        0.0196
     41 C          63.4185   83.6718    9.6569 C.3     1  UNL1        0.0196
     42 C          58.8438   90.1201    5.3245 C.3     1  UNL1        0.0993
     43 C          59.6201   91.0524    4.4425 C.ar    1  UNL1       -0.0029
     44 C          58.9027   92.0979    3.6408 C.ar    1  UNL1        0.0004
     45 C          59.6790   93.0302    2.7588 C.ar    1  UNL1        0.0399
     46 C          61.1726   92.9172    2.6783 C.ar    1  UNL1        0.1764
     47 C          61.8899   91.8718    3.4799 C.ar    1  UNL1        0.1762
     48 C          61.1136   90.9394    4.3620 C.ar    1  UNL1        0.0373
     49 O          63.3579   91.9986    3.1990 O.3     1  UNL1       -0.4346
     50 C          63.5479   93.1224    2.2239 C.3     1  UNL1        0.4294
     51 O          62.1973   93.6901    1.9020 O.3     1  UNL1       -0.4346
     52 C          63.0395   90.9922   10.6796 C.3     1  UNL1        0.0484
     53 C          64.2230   91.9050   10.8061 C.ar    1  UNL1       -0.0204
     54 C          65.3780   91.5185   11.6817 C.ar    1  UNL1       -0.0042
     55 C          66.5615   92.4313   11.8083 C.ar    1  UNL1       -0.0003
     56 C          66.5902   93.7306   11.0593 C.ar    1  UNL1       -0.0000
     57 C          65.4352   94.1171   10.1837 C.ar    1  UNL1       -0.0003
     58 C          64.2515   93.2043   10.0571 C.ar    1  UNL1       -0.0042
@<TRIPOS>BOND
     1    18    19    1
     2    19    20    1
     3    19    13    1
     4    13    14   ar
     5    14    15   ar
     6    15    12    1
     7    12    11    1
     8    11     7    1
     9     7     8    2
    10     7     9   am
    11     6     9    1
    12     6     2    1
    13     2     3    2
    14     2     4   am
    15     4     1    1
    16     1    52    1
    17    52    53    1
    18    53    54   ar
    19    54    55   ar
    20    55    56   ar
    21    56    57   ar
    22    57    58   ar
    23     1    24    1
    24    24    25    1
    25    24    27    1
    26    27    28    1
    27    28    29    1
    28    29    30    1
    29    30    31    1
    30    31    42    1
    31    42    43    1
    32    43    44   ar
    33    44    45   ar
    34    45    46   ar
    35    46    47   ar
    36    47    48   ar
    37    47    49    1
    38    49    50    1
    39    50    51    1
    40    31    32    1
    41    32    33    1
    42    33    34    1
    43    34    35    2
    44    34    36   am
    45    36    38    1
    46    38    39    1
    47    38    40    1
    48    38    41    1
    49     6    21    1
    50    21    22    1
    51    21    23    1
    52    15    16   ar
    53    16    17   ar
    54    17    13   ar
    55    58    53   ar
    56    33    28    1
    57    48    43   ar
    58    51    46    1
    59     9    10    1
    60     4     5    1
    61    25    26    1
    62    36    37    1
