@<TRIPOS>MOLECULE
*****
 65 72 0 0 0
SMALL
GASTEIGER

@<TRIPOS>ATOM
      1 N          58.6341   93.8414   -3.7002 N.3     1  UNL1       -0.1862
      2 C          59.5590   95.0177   -3.8041 C.3     1  UNL1        0.1775
      3 C          60.1355   95.6304   -2.5623 C.2     1  UNL1        0.2452
      4 O          61.0604   96.8068   -2.6662 O.2     1  UNL1       -0.2732
      5 N          59.7872   95.0669   -1.2166 N.am    1  UNL1       -0.2541
      6 C          60.3637   95.6796    0.0253 C.3     1  UNL1        0.1577
      7 C          60.0154   95.1161    1.3710 C.2     1  UNL1        0.2445
      8 O          60.5919   95.7288    2.6128 O.2     1  UNL1       -0.2731
      9 N          59.0904   93.9397    1.4749 N.am    1  UNL1       -0.2705
     10 C          58.5139   93.3269    0.2331 C.3     1  UNL1        0.1359
     11 C          58.8623   93.8906   -1.1127 C.3     1  UNL1        0.1908
     12 N          58.2857   93.2778   -2.3545 N.am    1  UNL1       -0.1863
     13 C          57.3608   92.1014   -2.2505 C.2     1  UNL1        0.3191
     14 O          57.0125   91.5379   -0.9048 O.2     1  UNL1       -0.2512
     15 N          56.7843   91.4887   -3.4924 N.am    1  UNL1       -0.2836
     16 H          57.0129   91.8586   -4.3756 H       1  UNL1        0.1513
     17 C          58.0575   93.2286   -4.9420 C.3     1  UNL1        0.1188
     18 C          56.2374   95.0790   -5.0561 C.2     1  UNL1       -0.0034
     19 C          56.9758   93.9419   -5.6977 C.2     1  UNL1       -0.0071
     20 C          61.2886   96.8559   -0.0786 C.3     1  UNL1        0.0556
     21 C          62.7737   96.6469   -0.0531 C.ar    1  UNL1       -0.0198
     22 C          63.5181   96.3971   -1.3311 C.ar    1  UNL1       -0.0011
     23 C          65.0032   96.1880   -1.3055 C.ar    1  UNL1        0.0363
     24 C          65.7440   96.2288   -0.0019 C.ar    1  UNL1        0.1337
     25 O          67.2291   96.0197    0.0237 O.3     1  UNL1       -0.5055
     26 C          64.9997   96.4786    1.2763 C.ar    1  UNL1        0.0363
     27 C          63.5145   96.6876    1.2507 C.ar    1  UNL1       -0.0011
     28 H          67.6941   95.8636   -0.7747 H       1  UNL1        0.2922
     29 C          58.7421   93.3761    2.8207 C.3     1  UNL1        0.1217
     30 C          59.6632   92.3958    3.4845 C.ar    1  UNL1        0.0135
     31 C          61.1059   92.3293    3.0793 C.ar    1  UNL1       -0.0012
     32 C          62.0269   91.3490    3.7431 C.ar    1  UNL1       -0.0002
     33 C          61.5053   90.4353    4.8122 C.ar    1  UNL1        0.0016
     34 C          60.0626   90.5018    5.2174 C.ar    1  UNL1        0.0214
     35 C          59.2686   89.7336    6.2320 C.ar    1  UNL1        0.0721
     36 C          57.8568   90.2391    6.1952 C.ar    1  UNL1        0.0805
     37 N          57.7783   91.3197    5.1579 N.ar    1  UNL1       -0.3241
     38 C          56.5519   92.1008    4.7896 C.3     1  UNL1        0.1305
     39 C          59.1415   91.4820    4.5536 C.ar    1  UNL1        0.0577
     40 C          59.7942   88.6501    7.1264 C.2     1  UNL1        0.2506
     41 O          59.5359   87.2107    6.7923 O.2     1  UNL1       -0.2699
     42 N          60.5779   89.0059    8.3548 N.am    1  UNL1       -0.2732
     43 C          60.8361   90.4453    8.6889 C.3     1  UNL1        0.1110
     44 C          61.6199   90.8012    9.9173 C.3     1  UNL1        0.0940
     45 N          62.1455   89.7177   10.8117 N.3     1  UNL1       -0.2681
     46 C          62.9293   90.0736   12.0402 C.3     1  UNL1        0.0941
     47 C          63.4548   88.9901   12.9345 C.3     1  UNL1        0.1141
     48 N          63.1965   87.5508   12.6004 N.am    1  UNL1       -0.2432
     49 C          63.7221   86.4674   13.4948 C.2     1  UNL1        0.4047
     50 O          64.5059   86.8232   14.7233 O.2     1  UNL1       -0.2262
     51 C          62.4128   87.1949   11.3720 C.3     1  UNL1        0.1144
     52 C          61.8873   88.2784   10.4777 C.3     1  UNL1        0.0976
     53 C          61.1035   87.9225    9.2492 C.3     1  UNL1        0.1114
     54 O          63.4638   85.0280   13.1607 O.3     1  UNL1       -0.4418
     55 C          63.7436   83.9604   14.1767 C.3     1  UNL1        0.1378
     56 C          65.1059   83.7534   13.5840 C.3     1  UNL1        0.0437
     57 C          62.3813   84.1674   14.7693 C.3     1  UNL1        0.0437
     58 C          64.0233   82.8928   15.1926 C.3     1  UNL1        0.0437
     59 C          55.8594   90.3124   -3.3885 C.3     1  UNL1        0.1177
     60 C          54.9234   89.9923   -4.5161 C.ar    1  UNL1       -0.0025
     61 C          53.8297   88.9847   -4.3200 C.ar    1  UNL1       -0.0026
     62 C          52.8938   88.6646   -5.4476 C.ar    1  UNL1       -0.0003
     63 C          53.0516   89.3521   -6.7714 C.ar    1  UNL1       -0.0000
     64 C          54.1453   90.3598   -6.9675 C.ar    1  UNL1       -0.0003
     65 C          55.0812   90.6798   -5.8399 C.ar    1  UNL1       -0.0026
@<TRIPOS>BOND
     1    18    19    2
     2    19    17    1
     3    17     1    1
     4     1     2    1
     5     2     3    1
     6     3     4    2
     7     3     5   am
     8     5     6    1
     9     6    20    1
    10    20    21    1
    11    21    22   ar
    12    22    23   ar
    13    23    24   ar
    14    24    25    1
    15    24    26   ar
    16    26    27   ar
    17     6     7    1
    18     7     8    2
    19     7     9   am
    20     9    29    1
    21    29    30    1
    22    30    31   ar
    23    31    32   ar
    24    32    33   ar
    25    33    34   ar
    26    34    35   ar
    27    35    40    1
    28    40    41    2
    29    40    42   am
    30    42    43    1
    31    43    44    1
    32    44    45    1
    33    45    46    1
    34    46    47    1
    35    47    48    1
    36    48    49   am
    37    49    50    2
    38    49    54    1
    39    54    55    1
    40    55    56    1
    41    55    57    1
    42    55    58    1
    43    48    51    1
    44    51    52    1
    45    52    53    1
    46    35    36   ar
    47    36    37   ar
    48    37    38    1
    49    37    39   ar
    50     9    10    1
    51    11    10    1
    52    11    12    1
    53    12    13   am
    54    13    14    2
    55    13    15   am
    56    15    59    1
    57    59    60    1
    58    60    61   ar
    59    61    62   ar
    60    62    63   ar
    61    63    64   ar
    62    64    65   ar
    63    12     1    1
    64    65    60   ar
    65    11     5    1
    66    27    21   ar
    67    39    30   ar
    68    39    34   ar
    69    53    42    1
    70    52    45    1
    71    25    28    1
    72    15    16    1
@<TRIPOS>MOLECULE
*****
 65 72 0 0 0
SMALL
GASTEIGER

@<TRIPOS>ATOM
      1 N          65.3811   89.6116   14.5648 N.3     1  UNL1       -0.1862
      2 C          65.5865   88.3961   15.4194 C.3     1  UNL1        0.1775
      3 C          64.8498   87.1272   15.1080 C.2     1  UNL1        0.2452
      4 O          65.0553   85.9116   15.9626 O.2     1  UNL1       -0.2732
      5 N          63.9076   87.0737   13.9421 N.am    1  UNL1       -0.2541
      6 C          63.1709   85.8048   13.6307 C.3     1  UNL1        0.1577
      7 C          62.2287   85.7513   12.4648 C.2     1  UNL1        0.2445
      8 O          61.4920   84.4823   12.1534 O.2     1  UNL1       -0.2731
      9 N          62.0233   86.9668   11.6102 N.am    1  UNL1       -0.2705
     10 C          62.7600   88.2358   11.9216 C.3     1  UNL1        0.1359
     11 C          63.7022   88.2892   13.0876 C.3     1  UNL1        0.1908
     12 N          64.4389   89.5582   13.3989 N.am    1  UNL1       -0.1863
     13 C          64.2335   90.7737   12.5443 C.2     1  UNL1        0.3191
     14 O          63.2913   90.7203   11.3784 O.2     1  UNL1       -0.2512
     15 N          64.9702   92.0427   12.8557 N.am    1  UNL1       -0.2836
     16 H          65.5886   92.0778   13.6209 H       1  UNL1        0.1513
     17 C          66.1178   90.8806   14.8762 C.3     1  UNL1        0.1188
     18 C          68.2393   92.3477   14.5649 C.2     1  UNL1       -0.0034
     19 C          67.5751   91.0029   14.5428 C.2     1  UNL1       -0.0071
     20 C          63.3763   84.5892   14.4853 C.3     1  UNL1        0.0556
     21 C          63.1712   83.2212   13.9052 C.ar    1  UNL1       -0.0198
     22 C          64.0231   82.7561   12.7616 C.ar    1  UNL1       -0.0011
     23 C          63.8180   81.3880   12.1815 C.ar    1  UNL1        0.0363
     24 C          62.7610   80.4852   12.7451 C.ar    1  UNL1        0.1337
     25 O          62.5559   79.1172   12.1650 O.3     1  UNL1       -0.5055
     26 C          61.9090   80.9504   13.8888 C.ar    1  UNL1        0.0363
     27 C          62.1142   82.3184   14.4688 C.ar    1  UNL1       -0.0011
     28 H          63.0880   78.8266   11.4507 H       1  UNL1        0.2922
     29 C          61.0811   86.9134   10.4443 C.3     1  UNL1        0.1217
     30 C          60.5092   88.1816    9.8833 C.ar    1  UNL1        0.0135
     31 C          60.2746   89.3600   10.7813 C.ar    1  UNL1       -0.0012
     32 C          59.7027   90.6282   10.2204 C.ar    1  UNL1       -0.0002
     33 C          59.3654   90.7180    8.7616 C.ar    1  UNL1        0.0016
     34 C          59.6000   89.5396    7.8637 C.ar    1  UNL1        0.0214
     35 C          59.3669   89.3337    6.3963 C.ar    1  UNL1        0.0721
     36 C          59.7946   87.9383    6.0503 C.ar    1  UNL1        0.0805
     37 N          60.2922   87.2817    7.3038 N.ar    1  UNL1       -0.3241
     38 C          60.8177   85.8814    7.4167 C.3     1  UNL1        0.1305
     39 C          60.1719   88.2714    8.4245 C.ar    1  UNL1        0.0577
     40 C          58.8046   90.3457    5.4424 C.2     1  UNL1        0.2506
     41 O          57.3264   90.5975    5.4014 O.2     1  UNL1       -0.2699
     42 N          59.7205   91.1057    4.5295 N.am    1  UNL1       -0.2732
     43 C          61.1986   90.8539    4.5705 C.3     1  UNL1        0.1110
     44 C          62.1145   91.6139    3.6576 C.3     1  UNL1        0.0940
     45 N          61.5524   92.6259    2.7037 N.3     1  UNL1       -0.2681
     46 C          62.4683   93.3860    1.7908 C.3     1  UNL1        0.0941
     47 C          61.9060   94.3979    0.8369 C.3     1  UNL1        0.1141
     48 N          60.4279   94.6497    0.7959 N.am    1  UNL1       -0.2432
     49 C          59.8657   95.6616   -0.1580 C.2     1  UNL1        0.4047
     50 O          60.7816   96.4217   -1.0709 O.2     1  UNL1       -0.2262
     51 C          59.5120   93.8897    1.7088 C.3     1  UNL1        0.1144
     52 C          60.0742   92.8777    2.6627 C.3     1  UNL1        0.0976
     53 C          59.1583   92.1177    3.5756 C.3     1  UNL1        0.1114
     54 O          58.3876   95.9135   -0.1990 O.3     1  UNL1       -0.4418
     55 C          57.5846   95.4746   -1.3876 C.3     1  UNL1        0.1378
     56 C          57.4761   94.0964   -0.8054 C.3     1  UNL1        0.0437
     57 C          57.6932   96.8527   -1.9697 C.3     1  UNL1        0.0437
     58 C          56.7817   95.0358   -2.5762 C.3     1  UNL1        0.0437
     59 C          64.7648   93.2582   12.0011 C.3     1  UNL1        0.1177
     60 C          65.8214   93.6730   11.0206 C.ar    1  UNL1       -0.0025
     61 C          66.7866   92.6579   10.4840 C.ar    1  UNL1       -0.0026
     62 C          67.8432   93.0726    9.5034 C.ar    1  UNL1       -0.0003
     63 C          67.9347   94.5025    9.0594 C.ar    1  UNL1       -0.0000
     64 C          66.9695   95.5176    9.5960 C.ar    1  UNL1       -0.0003
     65 C          65.9128   95.1029   10.5766 C.ar    1  UNL1       -0.0026
@<TRIPOS>BOND
     1    18    19    2
     2    19    17    1
     3    17     1    1
     4     1     2    1
     5     2     3    1
     6     3     4    2
     7     3     5   am
     8     5     6    1
     9     6    20    1
    10    20    21    1
    11    21    22   ar
    12    22    23   ar
    13    23    24   ar
    14    24    25    1
    15    24    26   ar
    16    26    27   ar
    17     6     7    1
    18     7     8    2
    19     7     9   am
    20     9    29    1
    21    29    30    1
    22    30    31   ar
    23    31    32   ar
    24    32    33   ar
    25    33    34   ar
    26    34    35   ar
    27    35    40    1
    28    40    41    2
    29    40    42   am
    30    42    43    1
    31    43    44    1
    32    44    45    1
    33    45    46    1
    34    46    47    1
    35    47    48    1
    36    48    49   am
    37    49    50    2
    38    49    54    1
    39    54    55    1
    40    55    56    1
    41    55    57    1
    42    55    58    1
    43    48    51    1
    44    51    52    1
    45    52    53    1
    46    35    36   ar
    47    36    37   ar
    48    37    38    1
    49    37    39   ar
    50     9    10    1
    51    11    10    1
    52    11    12    1
    53    12    13   am
    54    13    14    2
    55    13    15   am
    56    15    59    1
    57    59    60    1
    58    60    61   ar
    59    61    62   ar
    60    62    63   ar
    61    63    64   ar
    62    64    65   ar
    63    12     1    1
    64    65    60   ar
    65    11     5    1
    66    27    21   ar
    67    39    30   ar
    68    39    34   ar
    69    53    42    1
    70    52    45    1
    71    25    28    1
    72    15    16    1
