@<TRIPOS>MOLECULE
*****
 39 42 0 0 0
SMALL
GASTEIGER

@<TRIPOS>ATOM
      1 CA         63.0376   85.9035   14.0840 C.3     2  LEU2        0.1524
      2 C          63.6652   86.5997   15.2551 C.2     2  LEU2        0.2409
      3 O          63.7429   85.9093   16.5846 O.2     2  LEU2       -0.2733
      4 N          64.2150   87.9863   15.0968 N.am    1  UNK1       -0.2970
      5 C          64.1373   88.6767   13.7674 C.3     1  UNK1        0.1494
      6 C          63.5098   87.9805   12.5964 C.2     1  UNK1        0.2445
      7 O          63.4321   88.6709   11.2669 O.2     1  UNK1       -0.2731
      8 N          62.9599   86.5939   12.7547 N.am    2  LEU2       -0.2591
      9 H          64.6269   88.4432   15.8655 H       1  UNK1        0.1499
     10 C          64.6872   90.0633   13.6091 C.3     1  UNK1        0.0356
     11 C          65.4143   90.8487   14.6600 C.3     1  UNK1        0.0285
     12 C          65.7830   92.1787   14.0726 C.ar    1  UNK1       -0.0261
     13 C          66.5088   93.3612   14.6425 C.ar    1  UNK1       -0.0046
     14 C          66.7353   94.5803   13.7984 C.ar    1  UNK1       -0.0003
     15 C          66.2360   94.6169   12.3844 C.ar    1  UNK1       -0.0003
     16 C          65.5102   93.4344   11.8145 C.ar    1  UNK1       -0.0046
     17 C          65.2837   92.2153   12.6586 C.ar    1  UNK1       -0.0261
     18 C          64.6065   90.9079   12.3722 C.3     1  UNK1        0.0285
     19 CB         62.4878   84.5169   14.2423 C.3     2  LEU2        0.0292
     20 CD1        62.8939   82.0750   15.0309 C.3     2  LEU2        0.0001
     21 CG         63.4184   83.3622   14.4671 C.3     2  LEU2        0.0021
     22 CD2        64.8736   83.4947   14.1280 C.3     2  LEU2        0.0001
     23 C          62.3324   85.8977   11.5835 C.3     0  UNK0        0.2100
     24 C          62.8042   84.5316   11.1822 C.ar    0  UNK0        0.1497
     25 C          63.9326   84.2296   10.2412 C.ar    0  UNK0        0.0382
     26 C          64.0562   82.7389   10.1289 C.ar    0  UNK0        0.0444
     27 C          63.0042   82.1196   11.0004 C.ar    0  UNK0        0.2162
     28 O          62.2304   83.2275   11.6514 O.2     0  UNK0       -0.4515
     29 C          62.7675   80.6503   11.1881 C.3     0  UNK0        0.4510
     30 F          62.5307   79.1810   11.3757 F       0  UNK0       -0.1632
     31 F          63.2198   80.3977    9.7804 F       0  UNK0       -0.1632
     32 F          62.3151   80.9030   12.5957 F       0  UNK0       -0.1632
     33 C          61.2331   86.5677   10.8137 C.2     0  UNK0        0.2481
     34 O          60.1370   87.2865   11.5431 O.2     0  UNK0       -0.2728
     35 N          61.2298   86.5188    9.3144 N.am    0  UNK0       -0.3043
     36 H          61.9491   86.0470    8.8357 H       0  UNK0        0.1494
     37 C          60.1305   87.1888    8.5446 C.3     0  UNK0        0.0717
     38 C          59.1353   86.3624    7.7852 C.3     0  UNK0        0.0213
     39 C          60.0263   88.6851    8.5343 C.3     0  UNK0        0.0213
@<TRIPOS>BOND
     1    20    21    1
     2    21    22    1
     3    21    19    1
     4     1    19    1
     5     1     2    1
     6     2     3    2
     7     2     4   am
     8     4     5    1
     9     5    10    1
    10    10    11    1
    11    11    12    1
    12    12    13   ar
    13    13    14   ar
    14    14    15   ar
    15    15    16   ar
    16    16    17   ar
    17    17    18    1
    18     5     6    1
    19     6     7    2
    20     6     8   am
    21    23     8    1
    22    23    33    1
    23    33    34    2
    24    33    35   am
    25    35    37    1
    26    37    38    1
    27    37    39    1
    28    23    24    1
    29    24    25   ar
    30    25    26   ar
    31    26    27   ar
    32    27    29    1
    33    29    30    1
    34    29    31    1
    35    29    32    1
    36    27    28   ar
    37     8     1    1
    38    28    24   ar
    39    18    10    1
    40    17    12   ar
    41     4     9    1
    42    35    36    1
@<TRIPOS>MOLECULE
*****
 39 42 0 0 0
SMALL
GASTEIGER

@<TRIPOS>ATOM
      1 CA         64.8175   92.1736   12.2003 C.3     2  LEU2        0.1524
      2 C          64.4129   92.4524   10.7831 C.2     2  LEU2        0.2409
      3 O          64.8933   93.6967   10.0969 O.2     2  LEU2       -0.2733
      4 N          63.5279   91.4868   10.0520 N.am    1  UNK1       -0.2970
      5 C          63.0474   90.2425   10.7382 C.3     1  UNK1        0.1494
      6 C          63.4521   89.9637   12.1554 C.2     1  UNK1        0.2445
      7 O          62.9717   88.7193   12.8416 O.2     1  UNK1       -0.2731
      8 N          64.3371   90.9292   12.8864 N.am    2  LEU2       -0.2591
      9 H          63.2623   91.6698    9.1219 H       1  UNK1        0.1499
     10 C          62.1624   89.2770   10.0071 C.3     1  UNK1        0.0356
     11 C          62.4842   87.8444    9.7005 C.3     1  UNK1        0.0285
     12 C          61.3209   87.2565    8.9582 C.ar    1  UNK1       -0.0261
     13 C          61.0748   85.8857    8.4011 C.ar    1  UNK1       -0.0046
     14 C          59.7880   85.5842    7.6920 C.ar    1  UNK1       -0.0003
     15 C          58.7471   86.6536    7.5398 C.ar    1  UNK1       -0.0003
     16 C          58.9931   88.0244    8.0969 C.ar    1  UNK1       -0.0046
     17 C          60.2800   88.3258    8.8060 C.ar    1  UNK1       -0.0261
     18 C          60.8001   89.5745    9.4543 C.3     1  UNK1        0.0285
     19 CB         65.7026   93.1391   12.9314 C.3     2  LEU2        0.0292
     20 CD1        66.4295   95.5413   12.2598 C.3     2  LEU2        0.0001
     21 CG         66.6087   94.0551   12.1634 C.3     2  LEU2        0.0021
     22 CD2        67.6941   93.4850   11.2990 C.3     2  LEU2        0.0001
     23 C          64.7418   90.6504   14.3037 C.3     0  UNK0        0.2100
     24 C          64.2446   89.4164   14.9966 C.ar    0  UNK0        0.1497
     25 C          63.2466   89.3751   16.1157 C.ar    0  UNK0        0.0382
     26 C          63.0433   87.9403   16.5029 C.ar    0  UNK0        0.0444
     27 C          63.9157   87.0948   15.6231 C.ar    0  UNK0        0.2162
     28 O          64.6581   88.0071   14.6922 O.2     0  UNK0       -0.4515
     29 C          64.0263   85.5995   15.6665 C.3     0  UNK0        0.4510
     30 F          64.1368   84.1042   15.7100 F       0  UNK0       -0.1632
     31 F          62.9767   85.5530   16.7371 F       0  UNK0       -0.1632
     32 F          65.0759   85.6460   14.5959 F       0  UNK0       -0.1632
     33 C          65.6435   91.6055   15.0280 C.2     0  UNK0        0.2481
     34 O          65.0564   92.6990   15.8703 O.2     0  UNK0       -0.2728
     35 N          67.1325   91.4670   14.9099 N.am    0  UNK0       -0.3043
     36 H          67.5179   90.7493   14.3571 H       0  UNK0        0.1494
     37 C          68.0343   92.4221   15.6342 C.3     0  UNK0        0.0717
     38 C          68.9982   91.9097   16.6629 C.3     0  UNK0        0.0213
     39 C          67.9721   93.8896   15.3298 C.3     0  UNK0        0.0213
@<TRIPOS>BOND
     1    20    21    1
     2    21    22    1
     3    21    19    1
     4     1    19    1
     5     1     2    1
     6     2     3    2
     7     2     4   am
     8     4     5    1
     9     5    10    1
    10    10    11    1
    11    11    12    1
    12    12    13   ar
    13    13    14   ar
    14    14    15   ar
    15    15    16   ar
    16    16    17   ar
    17    17    18    1
    18     5     6    1
    19     6     7    2
    20     6     8   am
    21    23     8    1
    22    23    33    1
    23    33    34    2
    24    33    35   am
    25    35    37    1
    26    37    38    1
    27    37    39    1
    28    23    24    1
    29    24    25   ar
    30    25    26   ar
    31    26    27   ar
    32    27    29    1
    33    29    30    1
    34    29    31    1
    35    29    32    1
    36    27    28   ar
    37     8     1    1
    38    28    24   ar
    39    18    10    1
    40    17    12   ar
    41     4     9    1
    42    35    36    1
@<TRIPOS>MOLECULE
*****
 39 42 0 0 0
SMALL
GASTEIGER

@<TRIPOS>ATOM
      1 CA         60.7626   88.3389   10.8946 C.3     2  LEU2        0.1524
      2 C          60.5507   89.7997   11.1613 C.2     2  LEU2        0.2409
      3 O          59.3157   90.4834   10.6537 O.2     2  LEU2       -0.2733
      4 N          61.5737   90.5769   11.9356 N.am    1  UNK1       -0.2970
      5 C          62.8085   89.8932   12.4432 C.3     1  UNK1        0.1494
      6 C          63.0204   88.4325   12.1765 C.2     1  UNK1        0.2445
      7 O          64.2554   87.7488   12.6841 O.2     1  UNK1       -0.2731
      8 N          61.9975   87.6553   11.4022 N.am    2  LEU2       -0.2591
      9 H          61.4346   91.5356   12.1106 H       1  UNK1        0.1499
     10 C          63.8315   90.6704   13.2175 C.3     1  UNK1        0.0356
     11 C          64.9241   91.5160   12.6333 C.3     1  UNK1        0.0285
     12 C          65.7094   92.1067   13.7666 C.ar    1  UNK1       -0.0261
     13 C          66.8989   93.0200   13.7949 C.ar    1  UNK1       -0.0046
     14 C          67.4812   93.4527   15.1077 C.ar    1  UNK1       -0.0003
     15 C          66.8740   92.9721   16.3924 C.ar    1  UNK1       -0.0003
     16 C          65.6844   92.0588   16.3641 C.ar    1  UNK1       -0.0046
     17 C          65.1022   91.6261   15.0513 C.ar    1  UNK1       -0.0261
     18 C          63.9416   90.7384   14.7119 C.3     1  UNK1        0.0285
     19 CB         59.7396   87.5617   10.1203 C.3     2  LEU2        0.0292
     20 CD1        60.2701   88.9641    7.9986 C.3     2  LEU2        0.0001
     21 CG         59.5455   87.8276    8.6569 C.3     2  LEU2        0.0021
     22 CD2        58.6268   86.9570    7.8518 C.3     2  LEU2        0.0001
     23 C          62.2094   86.1944   11.1355 C.3     0  UNK0        0.2100
     24 C          62.4579   85.7159    9.7358 C.ar    0  UNK0        0.1497
     25 C          63.8007   85.4896    9.1067 C.ar    0  UNK0        0.0382
     26 C          63.5800   85.0135    7.7015 C.ar    0  UNK0        0.0444
     27 C          62.1008   84.9457    7.4620 C.ar    0  UNK0        0.2162
     28 O          61.4074   85.3798    8.7193 O.2     0  UNK0       -0.4515
     29 C          61.4324   84.5187    6.1889 C.3     0  UNK0        0.4510
     30 F          60.7640   84.0917    4.9157 F       0  UNK0       -0.1632
     31 F          62.7743   84.3588    5.5380 F       0  UNK0       -0.1632
     32 F          60.0905   84.6786    6.8398 F       0  UNK0       -0.1632
     33 C          62.1728   85.2122   12.2685 C.2     0  UNK0        0.2481
     34 O          61.6111   85.6212   13.5979 O.2     0  UNK0       -0.2728
     35 N          62.6980   83.8208   12.0722 N.am    0  UNK0       -0.3043
     36 H          63.0666   83.5524   11.1997 H       0  UNK0        0.1494
     37 C          62.6614   82.8386   13.2052 C.3     0  UNK0        0.0717
     38 C          63.3945   83.1360   14.4796 C.3     0  UNK0        0.0213
     39 C          61.8916   81.5589   13.0639 C.3     0  UNK0        0.0213
@<TRIPOS>BOND
     1    20    21    1
     2    21    22    1
     3    21    19    1
     4     1    19    1
     5     1     2    1
     6     2     3    2
     7     2     4   am
     8     4     5    1
     9     5    10    1
    10    10    11    1
    11    11    12    1
    12    12    13   ar
    13    13    14   ar
    14    14    15   ar
    15    15    16   ar
    16    16    17   ar
    17    17    18    1
    18     5     6    1
    19     6     7    2
    20     6     8   am
    21    23     8    1
    22    23    33    1
    23    33    34    2
    24    33    35   am
    25    35    37    1
    26    37    38    1
    27    37    39    1
    28    23    24    1
    29    24    25   ar
    30    25    26   ar
    31    26    27   ar
    32    27    29    1
    33    29    30    1
    34    29    31    1
    35    29    32    1
    36    27    28   ar
    37     8     1    1
    38    28    24   ar
    39    18    10    1
    40    17    12   ar
    41     4     9    1
    42    35    36    1
@<TRIPOS>MOLECULE
*****
 39 42 0 0 0
SMALL
GASTEIGER

@<TRIPOS>ATOM
      1 CA         61.9584   87.0857   11.0071 C.3     2  LEU2        0.1524
      2 C          61.9474   88.4610   10.4085 C.2     2  LEU2        0.2409
      3 O          61.1189   88.7420    9.1899 O.2     2  LEU2       -0.2733
      4 N          62.7647   89.5554   11.0283 N.am    1  UNK1       -0.2970
      5 C          63.5932   89.2745   12.2468 C.3     1  UNK1        0.1494
      6 C          63.6042   87.8992   12.8454 C.2     1  UNK1        0.2445
      7 O          64.4327   87.6183   14.0640 O.2     1  UNK1       -0.2731
      8 N          62.7869   86.8048   12.2256 N.am    2  LEU2       -0.2591
      9 H          62.7574   90.4581   10.6354 H       1  UNK1        0.1499
     10 C          64.4105   90.3689   12.8666 C.3     1  UNK1        0.0356
     11 C          64.9577   90.3778   14.2632 C.3     1  UNK1        0.0285
     12 C          65.7096   91.6609   14.4585 C.ar    1  UNK1       -0.0261
     13 C          66.4586   92.2166   15.6332 C.ar    1  UNK1       -0.0046
     14 C          67.1253   93.5564   15.5320 C.ar    1  UNK1       -0.0003
     15 C          67.0428   94.3407   14.2560 C.ar    1  UNK1       -0.0003
     16 C          66.2938   93.7851   13.0812 C.ar    1  UNK1       -0.0046
     17 C          65.6272   92.4452   13.1825 C.ar    1  UNK1       -0.0261
     18 C          64.8243   91.6467   12.1987 C.3     1  UNK1        0.0285
     19 CB         61.1411   85.9913   10.3873 C.3     2  LEU2        0.0292
     20 CD1        62.3297   85.4135    8.1505 C.3     2  LEU2        0.0001
     21 CG         61.0994   85.8393    8.8956 C.3     2  LEU2        0.0021
     22 CD2        59.8275   86.1131    8.1490 C.3     2  LEU2        0.0001
     23 C          62.7980   85.4295   12.8243 C.3     0  UNK0        0.2100
     24 C          63.1287   84.2421   11.9695 C.ar    0  UNK0        0.1497
     25 C          64.0420   84.2393   10.7796 C.ar    0  UNK0        0.0382
     26 C          64.0820   82.8445   10.2292 C.ar    0  UNK0        0.0444
     27 C          63.1934   81.9852   11.0790 C.ar    0  UNK0        0.2162
     28 O          62.6043   82.8490   12.1545 O.2     0  UNK0       -0.4515
     29 C          62.9387   80.5195   10.8869 C.3     0  UNK0        0.4510
     30 F          62.6840   79.0539   10.6949 F       0  UNK0       -0.1632
     31 F          62.6734   80.3731   12.3560 F       0  UNK0       -0.1632
     32 F          63.2040   80.6659    9.4178 F       0  UNK0       -0.1632
     33 C          62.4783   85.2416   14.2777 C.2     0  UNK0        0.2481
     34 O          61.3428   84.3511   14.6869 O.2     0  UNK0       -0.2728
     35 N          63.2943   85.9443   15.3220 N.am    0  UNK0       -0.3043
     36 H          64.0396   86.5287   15.0535 H       0  UNK0        0.1494
     37 C          62.9747   85.7564   16.7755 C.3     0  UNK0        0.0717
     38 C          62.8653   84.3737   17.3466 C.3     0  UNK0        0.0213
     39 C          62.7644   86.9511   17.6577 C.3     0  UNK0        0.0213
@<TRIPOS>BOND
     1    20    21    1
     2    21    22    1
     3    21    19    1
     4     1    19    1
     5     1     2    1
     6     2     3    2
     7     2     4   am
     8     4     5    1
     9     5    10    1
    10    10    11    1
    11    11    12    1
    12    12    13   ar
    13    13    14   ar
    14    14    15   ar
    15    15    16   ar
    16    16    17   ar
    17    17    18    1
    18     5     6    1
    19     6     7    2
    20     6     8   am
    21    23     8    1
    22    23    33    1
    23    33    34    2
    24    33    35   am
    25    35    37    1
    26    37    38    1
    27    37    39    1
    28    23    24    1
    29    24    25   ar
    30    25    26   ar
    31    26    27   ar
    32    27    29    1
    33    29    30    1
    34    29    31    1
    35    29    32    1
    36    27    28   ar
    37     8     1    1
    38    28    24   ar
    39    18    10    1
    40    17    12   ar
    41     4     9    1
    42    35    36    1
@<TRIPOS>MOLECULE
*****
 39 42 0 0 0
SMALL
GASTEIGER

@<TRIPOS>ATOM
      1 CA         63.7301   88.0869   13.5913 C.3     2  LEU2        0.1524
      2 C          64.2467   86.9837   14.4665 C.2     2  LEU2        0.2409
      3 O          64.9240   87.3107   15.7644 O.2     2  LEU2       -0.2733
      4 N          64.0861   85.5534   14.0439 N.am    1  UNK1       -0.2970
      5 C          63.4088   85.2263   12.7461 C.3     1  UNK1        0.1494
      6 C          62.8922   86.3295   11.8709 C.2     1  UNK1        0.2445
      7 O          62.2150   86.0025   10.5730 O.2     1  UNK1       -0.2731
      8 N          63.0529   87.7598   12.2935 N.am    2  LEU2       -0.2591
      9 H          64.4252   84.8294   14.6184 H       1  UNK1        0.1499
     10 C          63.2482   83.7961   12.3236 C.3     1  UNK1        0.0356
     11 C          62.8248   82.6586   13.2049 C.3     1  UNK1        0.0285
     12 C          62.7977   81.4117   12.3715 C.ar    1  UNK1       -0.0261
     13 C          62.4553   79.9896   12.7037 C.ar    1  UNK1       -0.0046
     14 C          62.5195   78.9345   11.6396 C.ar    1  UNK1       -0.0003
     15 C          62.9263   79.3014   10.2432 C.ar    1  UNK1       -0.0003
     16 C          63.2687   80.7234    9.9109 C.ar    1  UNK1       -0.0046
     17 C          63.2044   81.7786   10.9751 C.ar    1  UNK1       -0.0261
     18 C          63.4829   83.2522   10.9455 C.3     1  UNK1        0.0285
     19 CB         63.8907   89.5171   14.0139 C.3     2  LEU2        0.0292
     20 CD1        64.1027   91.1456   16.0270 C.3     2  LEU2        0.0001
     21 CG         63.4700   89.9447   15.3887 C.3     2  LEU2        0.0021
     22 CD2        62.4165   89.1715   16.1251 C.3     2  LEU2        0.0001
     23 C          62.5362   88.8630   11.4182 C.3     0  UNK0        0.2100
     24 C          63.3071   90.1435   11.2918 C.ar    0  UNK0        0.1497
     25 C          63.2100   91.1231   10.1600 C.ar    0  UNK0        0.0382
     26 C          64.1534   92.2543   10.4438 C.ar    0  UNK0        0.0444
     27 C          64.8335   91.9738   11.7510 C.ar    0  UNK0        0.2162
     28 O          64.3105   90.6693   12.2751 O.2     0  UNK0       -0.4515
     29 C          65.8569   92.8449   12.4171 C.3     0  UNK0        0.4510
     30 F          66.8803   93.7160   13.0833 F       0  UNK0       -0.1632
     31 F          66.2497   91.7030   13.3069 F       0  UNK0       -0.1632
     32 F          65.4641   93.9869   11.5273 F       0  UNK0       -0.1632
     33 C          61.2487   88.6856   10.6693 C.2     0  UNK0        0.2481
     34 O          59.9388   88.8958   11.3693 O.2     0  UNK0       -0.2728
     35 N          61.2711   88.2981    9.2203 N.am    0  UNK0       -0.3043
     36 H          62.1308   88.1601    8.7609 H       0  UNK0        0.1494
     37 C          59.9836   88.1207    8.4714 C.3     0  UNK0        0.0717
     38 C          59.2526   86.8125    8.5359 C.3     0  UNK0        0.0213
     39 C          59.4272   89.2515    7.6581 C.3     0  UNK0        0.0213
@<TRIPOS>BOND
     1    20    21    1
     2    21    22    1
     3    21    19    1
     4     1    19    1
     5     1     2    1
     6     2     3    2
     7     2     4   am
     8     4     5    1
     9     5    10    1
    10    10    11    1
    11    11    12    1
    12    12    13   ar
    13    13    14   ar
    14    14    15   ar
    15    15    16   ar
    16    16    17   ar
    17    17    18    1
    18     5     6    1
    19     6     7    2
    20     6     8   am
    21    23     8    1
    22    23    33    1
    23    33    34    2
    24    33    35   am
    25    35    37    1
    26    37    38    1
    27    37    39    1
    28    23    24    1
    29    24    25   ar
    30    25    26   ar
    31    26    27   ar
    32    27    29    1
    33    29    30    1
    34    29    31    1
    35    29    32    1
    36    27    28   ar
    37     8     1    1
    38    28    24   ar
    39    18    10    1
    40    17    12   ar
    41     4     9    1
    42    35    36    1
@<TRIPOS>MOLECULE
*****
 39 42 0 0 0
SMALL
GASTEIGER

@<TRIPOS>ATOM
      1 CA         64.5481   91.7888   12.2857 C.3     2  LEU2        0.1524
      2 C          64.2245   92.0926   10.8530 C.2     2  LEU2        0.2409
      3 O          64.7175   93.3628   10.2257 O.2     2  LEU2       -0.2733
      4 N          63.4077   91.1261   10.0474 N.am    1  UNK1       -0.2970
      5 C          62.9146   89.8559   10.6746 C.3     1  UNK1        0.1494
      6 C          63.2383   89.5522   12.1074 C.2     1  UNK1        0.2445
      7 O          62.7452   88.2819   12.7347 O.2     1  UNK1       -0.2731
      8 N          64.0551   90.5186   12.9130 N.am    2  LEU2       -0.2591
      9 H          63.1953   91.3255    9.1070 H       1  UNK1        0.1499
     10 C          62.0979   88.8895    9.8690 C.3     1  UNK1        0.0356
     11 C          62.5543   87.5501    9.3714 C.3     1  UNK1        0.0285
     12 C          61.4198   86.9256    8.6144 C.ar    1  UNK1       -0.0261
     13 C          61.2913   85.6119    7.9019 C.ar    1  UNK1       -0.0046
     14 C          60.0052   85.2517    7.2192 C.ar    1  UNK1       -0.0003
     15 C          58.8476   86.2052    7.2490 C.ar    1  UNK1       -0.0003
     16 C          58.9761   87.5188    7.9616 C.ar    1  UNK1       -0.0046
     17 C          60.2622   87.8790    8.6443 C.ar    1  UNK1       -0.0261
     18 C          60.6813   89.0928    9.4197 C.3     1  UNK1        0.0285
     19 CB         65.3649   92.7552   13.0913 C.3     2  LEU2        0.0292
     20 CD1        67.6671   92.7095   11.8881 C.3     2  LEU2        0.0001
     21 CG         66.5120   93.4815   12.4536 C.3     2  LEU2        0.0021
     22 CD2        66.5040   94.9798   12.3813 C.3     2  LEU2        0.0001
     23 C          64.3787   90.2148   14.3458 C.3     0  UNK0        0.2100
     24 C          65.1987   91.1794   15.1503 C.ar    0  UNK0        0.1497
     25 C          64.7015   92.0295   16.2817 C.ar    0  UNK0        0.0382
     26 C          65.8554   92.8388   16.7953 C.ar    0  UNK0        0.0444
     27 C          67.0657   92.4888   15.9812 C.ar    0  UNK0        0.2162
     28 O          66.6598   91.4633   14.9646 O.2     0  UNK0       -0.4515
     29 C          68.4405   93.0635   16.1535 C.3     0  UNK0        0.4510
     30 F          69.8152   93.6382   16.3258 F       0  UNK0       -0.1632
     31 F          68.8498   91.8501   16.9345 F       0  UNK0       -0.1632
     32 F          68.0311   94.2770   15.3726 F       0  UNK0       -0.1632
     33 C          63.8825   88.9464   14.9741 C.2     0  UNK0        0.2481
     34 O          62.6688   88.9708   15.8553 O.2     0  UNK0       -0.2728
     35 N          64.5998   87.6535   14.7213 N.am    0  UNK0       -0.3043
     36 H          65.3963   87.6374   14.1429 H       0  UNK0        0.1494
     37 C          64.1035   86.3851   15.3496 C.3     0  UNK0        0.0717
     38 C          64.1689   85.0950   14.5872 C.3     0  UNK0        0.0213
     39 C          63.5419   86.4068   16.7403 C.3     0  UNK0        0.0213
@<TRIPOS>BOND
     1    20    21    1
     2    21    22    1
     3    21    19    1
     4     1    19    1
     5     1     2    1
     6     2     3    2
     7     2     4   am
     8     4     5    1
     9     5    10    1
    10    10    11    1
    11    11    12    1
    12    12    13   ar
    13    13    14   ar
    14    14    15   ar
    15    15    16   ar
    16    16    17   ar
    17    17    18    1
    18     5     6    1
    19     6     7    2
    20     6     8   am
    21    23     8    1
    22    23    33    1
    23    33    34    2
    24    33    35   am
    25    35    37    1
    26    37    38    1
    27    37    39    1
    28    23    24    1
    29    24    25   ar
    30    25    26   ar
    31    26    27   ar
    32    27    29    1
    33    29    30    1
    34    29    31    1
    35    29    32    1
    36    27    28   ar
    37     8     1    1
    38    28    24   ar
    39    18    10    1
    40    17    12   ar
    41     4     9    1
    42    35    36    1
@<TRIPOS>MOLECULE
*****
 39 42 0 0 0
SMALL
GASTEIGER

@<TRIPOS>ATOM
      1 CA         60.6387   88.5092   10.9703 C.3     2  LEU2        0.1524
      2 C          60.3771   89.9183   11.4130 C.2     2  LEU2        0.2409
      3 O          59.0689   90.5761   11.0874 O.2     2  LEU2       -0.2733
      4 N          61.4236   90.6696   12.1813 N.am    1  UNK1       -0.2970
      5 C          62.7317   90.0118   12.5070 C.3     1  UNK1        0.1494
      6 C          62.9933   88.6027   12.0643 C.2     1  UNK1        0.2445
      7 O          64.3015   87.9449   12.3899 O.2     1  UNK1       -0.2731
      8 N          61.9468   87.8514   11.2959 N.am    2  LEU2       -0.2591
      9 H          61.2519   91.5944   12.4719 H       1  UNK1        0.1499
     10 C          63.7783   90.7631   13.2753 C.3     1  UNK1        0.0356
     11 C          64.8615   91.6172   12.6861 C.3     1  UNK1        0.0285
     12 C          65.6780   92.1742   13.8144 C.ar    1  UNK1       -0.0261
     13 C          66.8736   93.0797   13.8365 C.ar    1  UNK1       -0.0046
     14 C          67.4906   93.4754   15.1452 C.ar    1  UNK1       -0.0003
     15 C          66.9120   92.9655   16.4318 C.ar    1  UNK1       -0.0003
     16 C          65.7165   92.0600   16.4097 C.ar    1  UNK1       -0.0046
     17 C          65.0994   91.6643   15.1010 C.ar    1  UNK1       -0.0261
     18 C          63.9254   90.7922   14.7678 C.3     1  UNK1        0.0285
     19 CB         59.5922   87.7579   10.2020 C.3     2  LEU2        0.0292
     20 CD1        58.7330   86.9388    7.8910 C.3     2  LEU2        0.0001
     21 CG         59.4668   87.9510    8.7198 C.3     2  LEU2        0.0021
     22 CD2        60.0752   89.1564    8.0663 C.3     2  LEU2        0.0001
     23 C          62.2085   86.4423   10.8532 C.3     0  UNK0        0.2100
     24 C          62.2924   85.3407   11.8679 C.ar    0  UNK0        0.1497
     25 C          62.3169   85.5142   13.3576 C.ar    0  UNK0        0.0382
     26 C          62.4062   84.1530   13.9815 C.ar    0  UNK0        0.0444
     27 C          62.4370   83.1382   12.8773 C.ar    0  UNK0        0.2162
     28 O          62.3667   83.8723   11.5710 O.2     0  UNK0       -0.4515
     29 C          62.5230   81.6506   13.0491 C.3     0  UNK0        0.4510
     30 F          62.6090   80.1630   13.2209 F       0  UNK0       -0.1632
     31 F          62.6162   81.4841   11.5613 F       0  UNK0       -0.1632
     32 F          62.4298   81.8170   14.5369 F       0  UNK0       -0.1632
     33 C          62.3862   86.1347    9.3959 C.2     0  UNK0        0.2481
     34 O          63.3840   86.9052    8.5830 O.2     0  UNK0       -0.2728
     35 N          61.5661   85.0567    8.7515 N.am    0  UNK0       -0.3043
     36 H          60.9112   84.5510    9.2850 H       0  UNK0        0.1494
     37 C          61.7438   84.7491    7.2941 C.3     0  UNK0        0.0717
     38 C          63.1205   84.5561    6.7308 C.3     0  UNK0        0.0213
     39 C          60.5448   84.6346    6.4001 C.3     0  UNK0        0.0213
@<TRIPOS>BOND
     1    20    21    1
     2    21    22    1
     3    21    19    1
     4     1    19    1
     5     1     2    1
     6     2     3    2
     7     2     4   am
     8     4     5    1
     9     5    10    1
    10    10    11    1
    11    11    12    1
    12    12    13   ar
    13    13    14   ar
    14    14    15   ar
    15    15    16   ar
    16    16    17   ar
    17    17    18    1
    18     5     6    1
    19     6     7    2
    20     6     8   am
    21    23     8    1
    22    23    33    1
    23    33    34    2
    24    33    35   am
    25    35    37    1
    26    37    38    1
    27    37    39    1
    28    23    24    1
    29    24    25   ar
    30    25    26   ar
    31    26    27   ar
    32    27    29    1
    33    29    30    1
    34    29    31    1
    35    29    32    1
    36    27    28   ar
    37     8     1    1
    38    28    24   ar
    39    18    10    1
    40    17    12   ar
    41     4     9    1
    42    35    36    1
@<TRIPOS>MOLECULE
*****
 39 42 0 0 0
SMALL
GASTEIGER

@<TRIPOS>ATOM
      1 CA         62.8845   85.7613   14.7284 C.3     2  LEU2        0.1524
      2 C          63.3133   86.5736   15.9143 C.2     2  LEU2        0.2409
      3 O          63.1482   86.0230   17.2998 O.2     2  LEU2       -0.2733
      4 N          63.9071   87.9365   15.7147 N.am    1  UNK1       -0.2970
      5 C          64.0723   88.4871   14.3293 C.3     1  UNK1        0.1494
      6 C          63.6435   87.6749   13.1434 C.2     1  UNK1        0.2445
      7 O          63.8087   88.2255   11.7579 O.2     1  UNK1       -0.2731
      8 N          63.0497   86.3120   13.3430 N.am    2  LEU2       -0.2591
      9 H          64.1885   88.4697   16.4931 H       1  UNK1        0.1499
     10 C          64.6661   89.8500   14.1297 C.3     1  UNK1        0.0356
     11 C          65.4723   90.6165   15.1360 C.3     1  UNK1        0.0285
     12 C          65.8625   91.9260   14.5170 C.ar    1  UNK1       -0.0261
     13 C          66.6593   93.0848   15.0386 C.ar    1  UNK1       -0.0046
     14 C          66.8911   94.2865   14.1713 C.ar    1  UNK1       -0.0003
     15 C          66.3261   94.3293   12.7825 C.ar    1  UNK1       -0.0003
     16 C          65.5293   93.1705   12.2609 C.ar    1  UNK1       -0.0046
     17 C          65.2975   91.9688   13.1281 C.ar    1  UNK1       -0.0261
     18 C          64.5581   90.6858   12.8888 C.3     1  UNK1        0.0285
     19 CB         62.2907   84.3984   14.9280 C.3     2  LEU2        0.0292
     20 CD1        62.6158   81.8230   15.0347 C.3     2  LEU2        0.0001
     21 CG         63.1866   83.2084   15.1043 C.3     2  LEU2        0.0021
     22 CD2        64.6534   83.4038   15.3501 C.3     2  LEU2        0.0001
     23 C          62.6209   85.4997   12.1570 C.3     0  UNK0        0.2100
     24 C          61.6434   86.0689   11.1719 C.ar    0  UNK0        0.1497
     25 C          60.7261   87.2313   11.4113 C.ar    0  UNK0        0.0382
     26 C          59.9273   87.4565   10.1619 C.ar    0  UNK0        0.0444
     27 C          60.3508   86.4332    9.1502 C.ar    0  UNK0        0.2162
     28 O          61.4114   85.5756    9.7745 O.2     0  UNK0       -0.4515
     29 C          59.8089   86.2922    7.7587 C.3     0  UNK0        0.4510
     30 F          59.2671   86.1512    6.3671 F       0  UNK0       -0.1632
     31 F          58.4699   86.7758    8.2311 F       0  UNK0       -0.1632
     32 F          61.1479   85.8085    7.2863 F       0  UNK0       -0.1632
     33 C          63.1698   84.1182   11.9562 C.2     0  UNK0        0.2481
     34 O          64.6414   83.8673   12.1023 O.2     0  UNK0       -0.2728
     35 N          62.2470   82.9877   11.6092 N.am    0  UNK0       -0.3043
     36 H          61.2811   83.1523   11.5133 H       0  UNK0        0.1494
     37 C          62.7958   81.6062   11.4084 C.3     0  UNK0        0.0717
     38 C          63.5273   81.2664   10.1437 C.3     0  UNK0        0.0213
     39 C          62.6131   80.5646   12.4722 C.3     0  UNK0        0.0213
@<TRIPOS>BOND
     1    20    21    1
     2    21    22    1
     3    21    19    1
     4     1    19    1
     5     1     2    1
     6     2     3    2
     7     2     4   am
     8     4     5    1
     9     5    10    1
    10    10    11    1
    11    11    12    1
    12    12    13   ar
    13    13    14   ar
    14    14    15   ar
    15    15    16   ar
    16    16    17   ar
    17    17    18    1
    18     5     6    1
    19     6     7    2
    20     6     8   am
    21    23     8    1
    22    23    33    1
    23    33    34    2
    24    33    35   am
    25    35    37    1
    26    37    38    1
    27    37    39    1
    28    23    24    1
    29    24    25   ar
    30    25    26   ar
    31    26    27   ar
    32    27    29    1
    33    29    30    1
    34    29    31    1
    35    29    32    1
    36    27    28   ar
    37     8     1    1
    38    28    24   ar
    39    18    10    1
    40    17    12   ar
    41     4     9    1
    42    35    36    1
@<TRIPOS>MOLECULE
*****
 39 42 0 0 0
SMALL
GASTEIGER

@<TRIPOS>ATOM
      1 CA         62.0814   87.1346   11.1221 C.3     2  LEU2        0.1524
      2 C          62.0026   88.5172   10.5457 C.2     2  LEU2        0.2409
      3 O          61.1144   88.7892    9.3679 O.2     2  LEU2       -0.2733
      4 N          62.8119   89.6278   11.1471 N.am    1  UNK1       -0.2970
      5 C          63.7000   89.3558   12.3249 C.3     1  UNK1        0.1494
      6 C          63.7788   87.9732   12.9013 C.2     1  UNK1        0.2445
      7 O          64.6670   87.7012   14.0791 O.2     1  UNK1       -0.2731
      8 N          62.9696   86.8627   12.2999 N.am    2  LEU2       -0.2591
      9 H          62.7601   90.5352   10.7688 H       1  UNK1        0.1499
     10 C          64.5093   90.4664   12.9263 C.3     1  UNK1        0.0356
     11 C          65.1164   90.4721   14.2979 C.3     1  UNK1        0.0285
     12 C          65.8359   91.7755   14.4810 C.ar    1  UNK1       -0.0261
     13 C          66.6180   92.3373   15.6310 C.ar    1  UNK1       -0.0046
     14 C          67.2376   93.6990   15.5226 C.ar    1  UNK1       -0.0003
     15 C          67.0751   94.4989   14.2641 C.ar    1  UNK1       -0.0003
     16 C          66.2930   93.9371   13.1140 C.ar    1  UNK1       -0.0046
     17 C          65.6734   92.5754   13.2225 C.ar    1  UNK1       -0.0261
     18 C          64.8535   91.7663   12.2616 C.3     1  UNK1        0.0285
     19 CB         61.2721   86.0241   10.5207 C.3     2  LEU2        0.0292
     20 CD1        62.5549   85.4447    8.3369 C.3     2  LEU2        0.0001
     21 CG         61.2791   85.8100    9.0361 C.3     2  LEU2        0.0021
     22 CD2        60.0101   85.9611    8.2506 C.3     2  LEU2        0.0001
     23 C          63.0484   85.4800   12.8763 C.3     0  UNK0        0.2100
     24 C          62.8599   85.2698   14.3495 C.ar    0  UNK0        0.1497
     25 C          62.5827   83.9594   15.0248 C.ar    0  UNK0        0.0382
     26 C          62.4669   84.2128   16.4987 C.ar    0  UNK0        0.0444
     27 C          62.6725   85.6798   16.7344 C.ar    0  UNK0        0.2162
     28 O          62.9154   86.3331   15.4061 O.2     0  UNK0       -0.4515
     29 C          62.6409   86.3721   18.0647 C.3     0  UNK0        0.4510
     30 F          62.6092   87.0643   19.3950 F       0  UNK0       -0.1632
     31 F          61.3210   86.9909   17.7113 F       0  UNK0       -0.1632
     32 F          63.9608   85.7533   18.4181 F       0  UNK0       -0.1632
     33 C          63.3159   84.3077   11.9796 C.2     0  UNK0        0.2481
     34 O          64.1796   84.4745   10.7646 O.2     0  UNK0       -0.2728
     35 N          62.7195   82.9686   12.2978 N.am    0  UNK0       -0.3043
     36 H          62.1526   82.8592   13.0953 H       0  UNK0        0.1494
     37 C          62.9870   81.7963   11.4011 C.3     0  UNK0        0.0717
     38 C          62.6932   80.4049   11.8781 C.3     0  UNK0        0.0213
     39 C          63.5481   82.0154   10.0274 C.3     0  UNK0        0.0213
@<TRIPOS>BOND
     1    20    21    1
     2    21    22    1
     3    21    19    1
     4     1    19    1
     5     1     2    1
     6     2     3    2
     7     2     4   am
     8     4     5    1
     9     5    10    1
    10    10    11    1
    11    11    12    1
    12    12    13   ar
    13    13    14   ar
    14    14    15   ar
    15    15    16   ar
    16    16    17   ar
    17    17    18    1
    18     5     6    1
    19     6     7    2
    20     6     8   am
    21    23     8    1
    22    23    33    1
    23    33    34    2
    24    33    35   am
    25    35    37    1
    26    37    38    1
    27    37    39    1
    28    23    24    1
    29    24    25   ar
    30    25    26   ar
    31    26    27   ar
    32    27    29    1
    33    29    30    1
    34    29    31    1
    35    29    32    1
    36    27    28   ar
    37     8     1    1
    38    28    24   ar
    39    18    10    1
    40    17    12   ar
    41     4     9    1
    42    35    36    1
