@<TRIPOS>MOLECULE
*****
 47 51 0 0 0
SMALL
GASTEIGER

@<TRIPOS>ATOM
      1 C          56.8000   95.4085   -3.5443 C.ar    1  UNL1        0.0924
      2 C          56.4590   95.5981   -4.9926 C.ar    1  UNL1        0.1515
      3 O          57.7313   95.5162   -5.7829 O.2     1  UNL1       -0.4360
      4 C          58.8586   95.2759   -4.8229 C.ar    1  UNL1        0.2294
      5 N          60.3349   95.1091   -5.0299 N.ar    1  UNL1       -0.2157
      6 C          61.2355   94.8758   -3.8533 C.ar    1  UNL1        0.0624
      7 C          60.6599   94.8092   -2.4697 C.ar    1  UNL1        0.0153
      8 C          59.1836   94.9760   -2.2628 C.ar    1  UNL1        0.0061
      9 C          58.2830   95.2094   -3.4394 C.ar    1  UNL1        0.0609
     10 C          61.5606   94.5759   -1.2931 C.ar    1  UNL1        0.0187
     11 C          61.1325   93.6507   -0.1928 C.ar    1  UNL1        0.0108
     12 C          62.0332   93.4173    0.9838 C.ar    1  UNL1        0.1094
     13 C          63.3619   94.1092    1.0601 C.ar    1  UNL1        0.2653
     14 O          64.2626   93.8759    2.2366 O.2     1  UNL1       -0.2668
     15 N          63.7899   95.0345   -0.0403 N.ar    1  UNL1       -0.2920
     16 C          65.1186   95.7264    0.0359 C.3     1  UNL1        0.1336
     17 C          62.8892   95.2678   -1.2169 C.ar    1  UNL1        0.0784
     18 C          61.6052   92.4921    2.0841 C.2     1  UNL1        0.2507
     19 O          62.3771   91.2334    2.3483 O.2     1  UNL1       -0.2700
     20 N          60.4054   92.8256    2.9202 N.am    1  UNL1       -0.2974
     21 H          59.8988   93.6517    2.7469 H       1  UNL1        0.1500
     22 C          59.9774   91.9003    4.0205 C.3     1  UNL1        0.1125
     23 C          61.4097   91.5274    4.2641 C.3     1  UNL1        0.0276
     24 C          58.5451   92.2732    3.7770 C.3     1  UNL1        0.0276
     25 C          59.5493   90.9750    5.1209 C.ar    1  UNL1        0.1966
     26 N          60.4601   90.1777    6.0067 N.ar    1  UNL1       -0.1854
     27 C          59.6089   89.3946    6.9618 C.ar    1  UNL1        0.3161
     28 O          58.1721   89.7079    6.6663 O.2     1  UNL1       -0.3277
     29 N          58.1352   90.6847    5.5286 N.ar    1  UNL1       -0.0584
     30 C          55.0867   95.8291   -5.5525 C.ar    1  UNL1        0.0349
     31 C          53.9901   96.3374   -4.6642 C.ar    1  UNL1        0.0053
     32 C          52.6178   96.5685   -5.2240 C.ar    1  UNL1        0.0297
     33 C          52.3421   96.2912   -6.6721 C.ar    1  UNL1        0.1401
     34 F          50.9698   96.5222   -7.2319 F       1  UNL1       -0.2042
     35 C          53.4387   95.7829   -7.5604 C.ar    1  UNL1        0.0297
     36 C          54.8110   95.5519   -7.0006 C.ar    1  UNL1        0.0053
     37 C          54.3885   96.7277   -0.6816 C.3     1  UNL1        0.1109
     38 N          55.3600   96.7196   -1.8245 N.am    1  UNL1       -0.2991
     39 C          55.8285   95.4166   -2.4014 C.2     1  UNL1        0.2490
     40 O          55.3255   94.1219   -1.8354 O.2     1  UNL1       -0.2700
     41 H          55.6901   97.5695   -2.1959 H       1  UNL1        0.1498
     42 C          62.7118   94.7090   -4.0602 C.3     1  UNL1        0.0547
     43 C          63.2203   93.7542   -5.0994 C.3     1  UNL1        0.1096
     44 C          64.4568   92.9472   -4.8355 C.3     1  UNL1        0.3982
     45 F          65.6934   92.1402   -4.5716 F       1  UNL1       -0.1700
     46 F          63.6962   92.1017   -3.8575 F       1  UNL1       -0.1700
     47 F          65.2174   93.7927   -5.8136 F       1  UNL1       -0.1700
@<TRIPOS>BOND
     1    37    38    1
     2    38    39   am
     3    39    40    2
     4    39     1    1
     5     1     2   ar
     6     2    30    1
     7    30    31   ar
     8    31    32   ar
     9    32    33   ar
    10    33    34    1
    11    33    35   ar
    12    35    36   ar
    13     2     3   ar
    14     3     4   ar
    15     4     5   ar
    16     5     6   ar
    17     6    42    1
    18    42    43    1
    19    43    44    1
    20    44    45    1
    21    44    46    1
    22    44    47    1
    23     6     7   ar
    24     7    10    1
    25    10    11   ar
    26    11    12   ar
    27    12    18    1
    28    18    19    2
    29    18    20   am
    30    20    22    1
    31    22    23    1
    32    22    24    1
    33    22    25    1
    34    25    26   ar
    35    26    27   ar
    36    27    28   ar
    37    28    29   ar
    38    12    13   ar
    39    13    14    2
    40    13    15   ar
    41    15    16    1
    42    15    17   ar
    43     7     8   ar
    44     8     9   ar
    45     9     1   ar
    46    36    30   ar
    47     9     4   ar
    48    17    10   ar
    49    29    25   ar
    50    38    41    1
    51    20    21    1
@<TRIPOS>MOLECULE
*****
 47 51 0 0 0
SMALL
GASTEIGER

@<TRIPOS>ATOM
      1 C          64.6963   91.4638   12.1243 C.ar    1  UNL1        0.0924
      2 C          65.3759   91.0411   13.3929 C.ar    1  UNL1        0.1515
      3 O          64.8379   89.6957   13.7808 O.2     1  UNL1       -0.4360
      4 C          63.8258   89.2869   12.7519 C.ar    1  UNL1        0.2294
      5 N          62.9727   88.0608   12.6150 N.ar    1  UNL1       -0.2157
      6 C          62.0320   87.9275   11.4542 C.ar    1  UNL1        0.0624
      7 C          61.9445   89.0203   10.4305 C.ar    1  UNL1        0.0153
      8 C          62.7976   90.2464   10.5674 C.ar    1  UNL1        0.0061
      9 C          63.7383   90.3797   11.7281 C.ar    1  UNL1        0.0609
     10 C          61.0037   88.8870    9.2697 C.ar    1  UNL1        0.0187
     11 C          60.9888   89.9309    8.1926 C.ar    1  UNL1        0.0108
     12 C          60.0481   89.7975    7.0319 C.ar    1  UNL1        0.1094
     13 C          59.1222   88.6203    6.9483 C.ar    1  UNL1        0.2653
     14 O          58.1815   88.4869    5.7876 O.2     1  UNL1       -0.2668
     15 N          59.1371   87.5764    8.0254 N.ar    1  UNL1       -0.2920
     16 C          58.2113   86.3992    7.9418 C.3     1  UNL1        0.1336
     17 C          60.0779   87.7098    9.1861 C.ar    1  UNL1        0.0784
     18 C          60.0332   90.8414    5.9548 C.2     1  UNL1        0.2507
     19 O          58.9076   91.8304    5.8845 O.2     1  UNL1       -0.2700
     20 N          61.1438   90.8963    4.9481 N.am    1  UNL1       -0.2974
     21 H          61.8826   90.2471    4.9943 H       1  UNL1        0.1500
     22 C          61.1289   91.9401    3.8711 C.3     1  UNL1        0.1125
     23 C          59.7079   92.2748    4.2152 C.3     1  UNL1        0.0276
     24 C          62.5500   91.6054    3.5270 C.3     1  UNL1        0.0276
     25 C          61.1141   92.9840    2.7940 C.ar    1  UNL1        0.1966
     26 N          60.0192   93.9786    2.5450 N.ar    1  UNL1       -0.1854
     27 C          60.4200   94.8258    1.3739 C.ar    1  UNL1        0.3161
     28 O          61.7627   94.3549    0.8990 O.2     1  UNL1       -0.3277
     29 N          62.1916   93.2166    1.7767 N.ar    1  UNL1       -0.0584
     30 C          66.4116   91.8259   14.1421 C.ar    1  UNL1        0.0349
     31 C          67.8330   91.8405   13.6634 C.ar    1  UNL1        0.0053
     32 C          68.8688   92.6253   14.4126 C.ar    1  UNL1        0.0297
     33 C          68.4830   93.3956   15.6406 C.ar    1  UNL1        0.1401
     34 F          69.5187   94.1805   16.3898 F       1  UNL1       -0.2042
     35 C          67.0616   93.3810   16.1193 C.ar    1  UNL1        0.0297
     36 C          66.0258   92.5962   15.3701 C.ar    1  UNL1        0.0053
     37 C          65.9390   95.1394   11.2899 C.3     1  UNL1        0.1109
     38 N          65.7022   93.8576   12.0320 N.am    1  UNL1       -0.2991
     39 C          64.9331   92.7457   11.3821 C.2     1  UNL1        0.2490
     40 O          64.4009   92.9157    9.9902 O.2     1  UNL1       -0.2700
     41 H          66.0515   93.7460   12.9457 H       1  UNL1        0.1498
     42 C          61.1788   86.7014   11.3173 C.3     1  UNL1        0.0547
     43 C          61.7695   85.3451   11.5650 C.3     1  UNL1        0.1096
     44 C          62.7532   84.7663   10.5918 C.3     1  UNL1        0.3982
     45 F          63.7370   84.1875    9.6184 F       1  UNL1       -0.1700
     46 F          61.9761   85.3591    9.4539 F       1  UNL1       -0.1700
     47 F          63.5303   84.1735   11.7296 F       1  UNL1       -0.1700
@<TRIPOS>BOND
     1    37    38    1
     2    38    39   am
     3    39    40    2
     4    39     1    1
     5     1     2   ar
     6     2    30    1
     7    30    31   ar
     8    31    32   ar
     9    32    33   ar
    10    33    34    1
    11    33    35   ar
    12    35    36   ar
    13     2     3   ar
    14     3     4   ar
    15     4     5   ar
    16     5     6   ar
    17     6    42    1
    18    42    43    1
    19    43    44    1
    20    44    45    1
    21    44    46    1
    22    44    47    1
    23     6     7   ar
    24     7    10    1
    25    10    11   ar
    26    11    12   ar
    27    12    18    1
    28    18    19    2
    29    18    20   am
    30    20    22    1
    31    22    23    1
    32    22    24    1
    33    22    25    1
    34    25    26   ar
    35    26    27   ar
    36    27    28   ar
    37    28    29   ar
    38    12    13   ar
    39    13    14    2
    40    13    15   ar
    41    15    16    1
    42    15    17   ar
    43     7     8   ar
    44     8     9   ar
    45     9     1   ar
    46    36    30   ar
    47     9     4   ar
    48    17    10   ar
    49    29    25   ar
    50    38    41    1
    51    20    21    1
@<TRIPOS>MOLECULE
*****
 47 51 0 0 0
SMALL
GASTEIGER

@<TRIPOS>ATOM
      1 C          65.9494   91.8102   11.6703 C.ar    1  UNL1        0.0924
      2 C          65.4943   92.6275   10.4977 C.ar    1  UNL1        0.1515
      3 O          64.0985   92.2023   10.1503 O.2     1  UNL1       -0.4360
      4 C          63.6909   91.1222   11.1080 C.ar    1  UNL1        0.2294
      5 N          62.4259   90.3281   11.2461 N.ar    1  UNL1       -0.2157
      6 C          62.3049   89.2916   12.3236 C.ar    1  UNL1        0.0624
      7 C          63.4488   89.0493   13.2630 C.ar    1  UNL1        0.0153
      8 C          64.7138   89.8434   13.1250 C.ar    1  UNL1        0.0061
      9 C          64.8348   90.8799   12.0475 C.ar    1  UNL1        0.0609
     10 C          63.3278   88.0128   14.3406 C.ar    1  UNL1        0.0187
     11 C          63.3455   86.5557   13.9850 C.ar    1  UNL1        0.0108
     12 C          63.2245   85.5191   15.0625 C.ar    1  UNL1        0.1094
     13 C          63.0856   85.9398   16.4956 C.ar    1  UNL1        0.2653
     14 O          62.9646   84.9034   17.5731 O.2     1  UNL1       -0.2668
     15 N          63.0679   87.3970   16.8512 N.ar    1  UNL1       -0.2920
     16 C          62.9291   87.8177   18.2843 C.3     1  UNL1        0.1336
     17 C          63.1889   88.4334   15.7737 C.ar    1  UNL1        0.0784
     18 C          63.2422   84.0620   14.7070 C.2     1  UNL1        0.2507
     19 O          63.9782   83.0867   15.5770 O.2     1  UNL1       -0.2700
     20 N          62.5240   83.5803   13.4813 N.am    1  UNL1       -0.2974
     21 H          62.0410   84.2205   12.9103 H       1  UNL1        0.1500
     22 C          62.5418   82.1232   13.1258 C.3     1  UNL1        0.1125
     23 C          63.4138   82.4225   11.9426 C.3     1  UNL1        0.0276
     24 C          61.6697   81.8238   14.3089 C.3     1  UNL1        0.0276
     25 C          62.5595   80.6660   12.7702 C.ar    1  UNL1        0.1966
     26 N          62.8613   80.0921   11.4176 N.ar    1  UNL1       -0.1854
     27 C          62.7669   78.5983   11.5163 C.ar    1  UNL1        0.3161
     28 O          62.4066   78.2490   12.9300 O.2     1  UNL1       -0.3277
     29 N          62.2785   79.5269   13.7049 N.ar    1  UNL1       -0.0584
     30 C          66.2946   93.6844    9.7959 C.ar    1  UNL1        0.0349
     31 C          65.9249   95.1301    9.9486 C.ar    1  UNL1        0.0053
     32 C          66.7252   96.1870    9.2468 C.ar    1  UNL1        0.0297
     33 C          67.8950   95.7983    8.3923 C.ar    1  UNL1        0.1401
     34 F          68.6953   96.8552    7.6905 F       1  UNL1       -0.2042
     35 C          68.2647   94.3526    8.2396 C.ar    1  UNL1        0.0297
     36 C          67.4644   93.2957    8.9414 C.ar    1  UNL1        0.0053
     37 C          68.6992   92.3506   14.4805 C.3     1  UNL1        0.1109
     38 N          67.3639   92.2545   13.8039 N.am    1  UNL1       -0.2991
     39 C          67.2847   91.9063   12.3469 C.2     1  UNL1        0.2490
     40 O          68.5407   91.6542   11.5668 O.2     1  UNL1       -0.2700
     41 H          66.5395   92.4200   14.3160 H       1  UNL1        0.1498
     42 C          61.0398   88.4975   12.4617 C.3     1  UNL1        0.0547
     43 C          60.4681   87.7847   11.2721 C.3     1  UNL1        0.1096
     44 C          61.3832   87.1617   10.2599 C.3     1  UNL1        0.3982
     45 F          62.2983   86.5387    9.2477 F       1  UNL1       -0.1700
     46 F          61.7623   86.1040   11.2537 F       1  UNL1       -0.1700
     47 F          61.0041   88.2193    9.2662 F       1  UNL1       -0.1700
@<TRIPOS>BOND
     1    37    38    1
     2    38    39   am
     3    39    40    2
     4    39     1    1
     5     1     2   ar
     6     2    30    1
     7    30    31   ar
     8    31    32   ar
     9    32    33   ar
    10    33    34    1
    11    33    35   ar
    12    35    36   ar
    13     2     3   ar
    14     3     4   ar
    15     4     5   ar
    16     5     6   ar
    17     6    42    1
    18    42    43    1
    19    43    44    1
    20    44    45    1
    21    44    46    1
    22    44    47    1
    23     6     7   ar
    24     7    10    1
    25    10    11   ar
    26    11    12   ar
    27    12    18    1
    28    18    19    2
    29    18    20   am
    30    20    22    1
    31    22    23    1
    32    22    24    1
    33    22    25    1
    34    25    26   ar
    35    26    27   ar
    36    27    28   ar
    37    28    29   ar
    38    12    13   ar
    39    13    14    2
    40    13    15   ar
    41    15    16    1
    42    15    17   ar
    43     7     8   ar
    44     8     9   ar
    45     9     1   ar
    46    36    30   ar
    47     9     4   ar
    48    17    10   ar
    49    29    25   ar
    50    38    41    1
    51    20    21    1
@<TRIPOS>MOLECULE
*****
 47 51 0 0 0
SMALL
GASTEIGER

@<TRIPOS>ATOM
      1 C          64.8449   91.6316   12.1449 C.ar    1  UNL1        0.0924
      2 C          65.0107   91.8096   13.6251 C.ar    1  UNL1        0.1515
      3 O          63.8442   91.1551   14.3041 O.2     1  UNL1       -0.4360
      4 C          62.9576   90.5726   13.2436 C.ar    1  UNL1        0.2294
      5 N          61.6671   89.8121   13.3207 N.ar    1  UNL1       -0.2157
      6 C          60.9950   89.3461   12.0633 C.ar    1  UNL1        0.0624
      7 C          61.6134   89.6405   10.7289 C.ar    1  UNL1        0.0153
      8 C          62.9040   90.4011   10.6518 C.ar    1  UNL1        0.0061
      9 C          63.5761   90.8671   11.9091 C.ar    1  UNL1        0.0609
     10 C          60.9412   89.1745    9.4714 C.ar    1  UNL1        0.0187
     11 C          60.6244   90.1559    8.3823 C.ar    1  UNL1        0.0108
     12 C          59.9522   89.6898    7.1249 C.ar    1  UNL1        0.1094
     13 C          59.5969   88.2423    6.9567 C.ar    1  UNL1        0.2653
     14 O          58.9248   87.7762    5.6994 O.2     1  UNL1       -0.2668
     15 N          59.9138   87.2608    8.0459 N.ar    1  UNL1       -0.2920
     16 C          59.5585   85.8132    7.8777 C.3     1  UNL1        0.1336
     17 C          60.5860   87.7269    9.3032 C.ar    1  UNL1        0.0784
     18 C          59.6354   90.6713    6.0357 C.2     1  UNL1        0.2507
     19 O          58.2332   91.1764    5.8660 O.2     1  UNL1       -0.2700
     20 N          60.7206   91.1477    5.1164 N.am    1  UNL1       -0.2974
     21 H          61.6409   90.8162    5.2278 H       1  UNL1        0.1500
     22 C          60.4038   92.1292    4.0272 C.3     1  UNL1        0.1125
     23 C          59.0630   92.3860    4.6488 C.3     1  UNL1        0.0276
     24 C          61.7446   91.8723    3.4057 C.3     1  UNL1        0.0276
     25 C          60.0870   93.1107    2.9380 C.ar    1  UNL1        0.1966
     26 N          59.6195   92.7712    1.5538 N.ar    1  UNL1       -0.1854
     27 C          59.4256   94.0547    0.8021 C.ar    1  UNL1        0.3161
     28 O          59.7733   95.1875    1.7219 O.2     1  UNL1       -0.3277
     29 N          60.1820   94.6041    3.0419 N.ar    1  UNL1       -0.0584
     30 C          66.1439   92.5178   14.3065 C.ar    1  UNL1        0.0349
     31 C          66.4698   93.9358   13.9418 C.ar    1  UNL1        0.0053
     32 C          67.6030   94.6439   14.6233 C.ar    1  UNL1        0.0297
     33 C          68.4102   93.9342   15.6694 C.ar    1  UNL1        0.1401
     34 F          69.5434   94.6423   16.3509 F       1  UNL1       -0.2042
     35 C          68.0843   92.5162   16.0342 C.ar    1  UNL1        0.0297
     36 C          66.9511   91.8080   15.3527 C.ar    1  UNL1        0.0053
     37 C          68.1661   92.2257   10.0551 C.3     1  UNL1        0.1109
     38 N          67.2278   91.7268   11.1137 N.am    1  UNL1       -0.2991
     39 C          65.7833   92.1305   11.0863 C.2     1  UNL1        0.2490
     40 O          65.2774   93.0331   10.0004 O.2     1  UNL1       -0.2700
     41 H          67.5599   91.1344   11.8264 H       1  UNL1        0.1498
     42 C          59.7043   88.5855   12.1403 C.3     1  UNL1        0.0547
     43 C          58.4921   89.2252   12.7496 C.3     1  UNL1        0.1096
     44 C          57.5038   88.3892   13.5075 C.3     1  UNL1        0.3982
     45 F          56.5154   87.5532   14.2653 F       1  UNL1       -0.1700
     46 F          58.5514   88.0836   14.5366 F       1  UNL1       -0.1700
     47 F          56.4562   88.6948   12.4784 F       1  UNL1       -0.1700
@<TRIPOS>BOND
     1    37    38    1
     2    38    39   am
     3    39    40    2
     4    39     1    1
     5     1     2   ar
     6     2    30    1
     7    30    31   ar
     8    31    32   ar
     9    32    33   ar
    10    33    34    1
    11    33    35   ar
    12    35    36   ar
    13     2     3   ar
    14     3     4   ar
    15     4     5   ar
    16     5     6   ar
    17     6    42    1
    18    42    43    1
    19    43    44    1
    20    44    45    1
    21    44    46    1
    22    44    47    1
    23     6     7   ar
    24     7    10    1
    25    10    11   ar
    26    11    12   ar
    27    12    18    1
    28    18    19    2
    29    18    20   am
    30    20    22    1
    31    22    23    1
    32    22    24    1
    33    22    25    1
    34    25    26   ar
    35    26    27   ar
    36    27    28   ar
    37    28    29   ar
    38    12    13   ar
    39    13    14    2
    40    13    15   ar
    41    15    16    1
    42    15    17   ar
    43     7     8   ar
    44     8     9   ar
    45     9     1   ar
    46    36    30   ar
    47     9     4   ar
    48    17    10   ar
    49    29    25   ar
    50    38    41    1
    51    20    21    1
@<TRIPOS>MOLECULE
*****
 47 51 0 0 0
SMALL
GASTEIGER

@<TRIPOS>ATOM
      1 C          63.4139   83.9806   12.3591 C.ar    1  UNL1        0.0924
      2 C          63.0003   82.6740   12.9687 C.ar    1  UNL1        0.1515
      3 O          62.7449   82.9041   14.4288 O.2     1  UNL1       -0.4360
      4 C          63.0006   84.3529   14.7215 C.ar    1  UNL1        0.2294
      5 N          62.9103   85.1522   15.9875 N.ar    1  UNL1       -0.2157
      6 C          63.2335   86.6168   15.9744 C.ar    1  UNL1        0.0624
      7 C          63.6470   87.2822   14.6952 C.ar    1  UNL1        0.0153
      8 C          63.7372   86.4829   13.4291 C.ar    1  UNL1        0.0061
      9 C          63.4140   85.0182   13.4423 C.ar    1  UNL1        0.0609
     10 C          63.9702   88.7470   14.6821 C.ar    1  UNL1        0.0187
     11 C          64.3708   89.4152   13.4003 C.ar    1  UNL1        0.0108
     12 C          64.6940   90.8799   13.3872 C.ar    1  UNL1        0.1094
     13 C          64.6165   91.6764   14.6559 C.ar    1  UNL1        0.2653
     14 O          64.9397   93.1411   14.6429 O.2     1  UNL1       -0.2668
     15 N          64.2159   91.0081   15.9377 N.ar    1  UNL1       -0.2920
     16 C          64.1384   91.8046   17.2064 C.3     1  UNL1        0.1336
     17 C          63.8927   89.5435   15.9508 C.ar    1  UNL1        0.0784
     18 C          65.0946   91.5481   12.1055 C.2     1  UNL1        0.2507
     19 O          64.3027   91.3071   10.8546 O.2     1  UNL1       -0.2700
     20 N          66.2872   92.4574   12.0745 N.am    1  UNL1       -0.2974
     21 H          66.8070   92.6156   12.8955 H       1  UNL1        0.1500
     22 C          66.6879   93.1256   10.7928 C.3     1  UNL1        0.1125
     23 C          67.5930   91.9726   10.4746 C.3     1  UNL1        0.0276
     24 C          65.7827   94.2786   11.1109 C.3     1  UNL1        0.0276
     25 C          67.0885   93.7938    9.5109 C.ar    1  UNL1        0.1966
     26 N          66.6300   95.1416    9.0385 N.ar    1  UNL1       -0.1854
     27 C          67.2761   95.4124    7.7121 C.ar    1  UNL1        0.3161
     28 O          68.1340   94.2319    7.3648 O.2     1  UNL1       -0.3277
     29 N          68.0180   93.2316    8.4766 N.ar    1  UNL1       -0.0584
     30 C          62.8658   81.3669   12.2453 C.ar    1  UNL1        0.0349
     31 C          62.5236   80.1203   13.0062 C.ar    1  UNL1        0.0053
     32 C          62.3891   78.8132   12.2829 C.ar    1  UNL1        0.0297
     33 C          62.5969   78.7526   10.7986 C.ar    1  UNL1        0.1401
     34 F          62.4624   77.4454   10.0752 F       1  UNL1       -0.2042
     35 C          62.9391   79.9991   10.0377 C.ar    1  UNL1        0.0297
     36 C          63.0736   81.3062   10.7611 C.ar    1  UNL1        0.0053
     37 C          63.2000   85.2370    8.6005 C.3     1  UNL1        0.1109
     38 N          62.8483   85.0081   10.0407 N.am    1  UNL1       -0.2991
     39 C          63.7655   84.2095   10.9189 C.2     1  UNL1        0.2490
     40 O          65.0342   83.6400   10.3570 O.2     1  UNL1       -0.2700
     41 H          62.0156   85.3820   10.4095 H       1  UNL1        0.1498
     42 C          63.1433   87.4162   17.2405 C.3     1  UNL1        0.0547
     43 C          62.7508   86.7464   18.5240 C.3     1  UNL1        0.1096
     44 C          62.7663   87.5201   19.8089 C.3     1  UNL1        0.3982
     45 F          62.7818   88.2937   21.0940 F       1  UNL1       -0.1700
     46 F          63.1853   88.7517   19.0624 F       1  UNL1       -0.1700
     47 F          62.3473   86.2884   20.5555 F       1  UNL1       -0.1700
@<TRIPOS>BOND
     1    37    38    1
     2    38    39   am
     3    39    40    2
     4    39     1    1
     5     1     2   ar
     6     2    30    1
     7    30    31   ar
     8    31    32   ar
     9    32    33   ar
    10    33    34    1
    11    33    35   ar
    12    35    36   ar
    13     2     3   ar
    14     3     4   ar
    15     4     5   ar
    16     5     6   ar
    17     6    42    1
    18    42    43    1
    19    43    44    1
    20    44    45    1
    21    44    46    1
    22    44    47    1
    23     6     7   ar
    24     7    10    1
    25    10    11   ar
    26    11    12   ar
    27    12    18    1
    28    18    19    2
    29    18    20   am
    30    20    22    1
    31    22    23    1
    32    22    24    1
    33    22    25    1
    34    25    26   ar
    35    26    27   ar
    36    27    28   ar
    37    28    29   ar
    38    12    13   ar
    39    13    14    2
    40    13    15   ar
    41    15    16    1
    42    15    17   ar
    43     7     8   ar
    44     8     9   ar
    45     9     1   ar
    46    36    30   ar
    47     9     4   ar
    48    17    10   ar
    49    29    25   ar
    50    38    41    1
    51    20    21    1
@<TRIPOS>MOLECULE
*****
 47 51 0 0 0
SMALL
GASTEIGER

@<TRIPOS>ATOM
      1 C          60.6484   88.2778    8.6308 C.ar    1  UNL1        0.0924
      2 C          60.5598   89.7106    8.1958 C.ar    1  UNL1        0.1515
      3 O          61.3132   90.5441    9.1896 O.2     1  UNL1       -0.4360
      4 C          61.8674   89.6264   10.2388 C.ar    1  UNL1        0.2294
      5 N          62.6930   89.8853   11.4641 N.ar    1  UNL1       -0.2157
      6 C          63.1078   88.7435   12.3439 C.ar    1  UNL1        0.0624
      7 C          62.6970   87.3428   11.9985 C.ar    1  UNL1        0.0153
      8 C          61.8713   87.0839   10.7733 C.ar    1  UNL1        0.0061
      9 C          61.4565   88.2258    9.8934 C.ar    1  UNL1        0.0609
     10 C          63.1118   86.2010   12.8784 C.ar    1  UNL1        0.0187
     11 C          63.2783   84.8283   12.2972 C.ar    1  UNL1        0.0108
     12 C          63.6932   83.6864   13.1771 C.ar    1  UNL1        0.1094
     13 C          63.9415   83.9174   14.6383 C.ar    1  UNL1        0.2653
     14 O          64.3563   82.7756   15.5182 O.2     1  UNL1       -0.2668
     15 N          63.7749   85.2902   15.2195 N.ar    1  UNL1       -0.2920
     16 C          64.0232   85.5211   16.6807 C.3     1  UNL1        0.1336
     17 C          63.3601   86.4319   14.3396 C.ar    1  UNL1        0.0784
     18 C          63.8597   82.3137   12.5958 C.2     1  UNL1        0.2507
     19 O          65.2272   81.7077   12.4834 O.2     1  UNL1       -0.2700
     20 N          62.6588   81.5470   12.1270 N.am    1  UNL1       -0.2974
     21 H          61.7612   81.9448   12.2008 H       1  UNL1        0.1500
     22 C          62.8253   80.1743   11.5457 C.3     1  UNL1        0.1125
     23 C          63.2207   80.7789   10.2312 C.3     1  UNL1        0.0276
     24 C          62.4299   79.5697   12.8602 C.3     1  UNL1        0.0276
     25 C          62.9918   78.8015   10.9645 C.ar    1  UNL1        0.1966
     26 N          63.4933   78.4820    9.5874 N.ar    1  UNL1       -0.1854
     27 C          63.4975   76.9903    9.4301 C.ar    1  UNL1        0.3161
     28 O          62.9986   76.3878   10.7101 O.2     1  UNL1       -0.3277
     29 N          62.6860   77.5072   11.6583 N.ar    1  UNL1       -0.0584
     30 C          59.8436   90.2204    6.9804 C.ar    1  UNL1        0.0349
     31 C          58.3546   90.0761    6.8717 C.ar    1  UNL1        0.0053
     32 C          57.6384   90.5858    5.6563 C.ar    1  UNL1        0.0297
     33 C          58.4113   91.2399    4.5496 C.ar    1  UNL1        0.1401
     34 F          57.6951   91.7497    3.3342 F       1  UNL1       -0.2042
     35 C          59.9003   91.3842    4.6583 C.ar    1  UNL1        0.0297
     36 C          60.6165   90.8745    5.8737 C.ar    1  UNL1        0.0053
     37 C          60.3015   84.8413    6.6761 C.3     1  UNL1        0.1109
     38 N          60.9135   86.0159    7.3802 N.am    1  UNL1       -0.2991
     39 C          60.0364   87.1032    7.9267 C.2     1  UNL1        0.2490
     40 O          58.5473   87.0157    7.7692 O.2     1  UNL1       -0.2700
     41 H          61.8909   86.0733    7.4836 H       1  UNL1        0.1498
     42 C          63.9335   89.0023   13.5692 C.3     1  UNL1        0.0547
     43 C          64.0054   90.3848   14.1469 C.3     1  UNL1        0.1096
     44 C          63.8438   90.5898   15.6239 C.3     1  UNL1        0.3982
     45 F          63.6820   90.7947   17.1011 F       1  UNL1       -0.1700
     46 F          64.9412   91.6121   15.6022 F       1  UNL1       -0.1700
     47 F          62.7464   89.5675   15.6457 F       1  UNL1       -0.1700
@<TRIPOS>BOND
     1    37    38    1
     2    38    39   am
     3    39    40    2
     4    39     1    1
     5     1     2   ar
     6     2    30    1
     7    30    31   ar
     8    31    32   ar
     9    32    33   ar
    10    33    34    1
    11    33    35   ar
    12    35    36   ar
    13     2     3   ar
    14     3     4   ar
    15     4     5   ar
    16     5     6   ar
    17     6    42    1
    18    42    43    1
    19    43    44    1
    20    44    45    1
    21    44    46    1
    22    44    47    1
    23     6     7   ar
    24     7    10    1
    25    10    11   ar
    26    11    12   ar
    27    12    18    1
    28    18    19    2
    29    18    20   am
    30    20    22    1
    31    22    23    1
    32    22    24    1
    33    22    25    1
    34    25    26   ar
    35    26    27   ar
    36    27    28   ar
    37    28    29   ar
    38    12    13   ar
    39    13    14    2
    40    13    15   ar
    41    15    16    1
    42    15    17   ar
    43     7     8   ar
    44     8     9   ar
    45     9     1   ar
    46    36    30   ar
    47     9     4   ar
    48    17    10   ar
    49    29    25   ar
    50    38    41    1
    51    20    21    1
