@<TRIPOS>MOLECULE
*****
 17 18 0 0 0
SMALL
GASTEIGER

@<TRIPOS>ATOM
      1 C          63.8745   83.3998   11.7243 C.ar    1  UNL1        0.1386
      2 C          63.9040   83.5192   10.2294 C.ar    1  UNL1        0.0369
      3 C          63.1034   84.5881    9.5464 C.ar    1  UNL1        0.0047
      4 C          62.2733   85.5376   10.3583 C.ar    1  UNL1        0.0194
      5 C          62.2438   85.4183   11.8533 C.ar    1  UNL1        0.0047
      6 C          63.0444   84.3493   12.5362 C.ar    1  UNL1        0.0369
      7 C          61.4727   86.6066    9.6754 C.ar    1  UNL1        0.1004
      8 C          61.7578   88.0521    9.9564 C.ar    1  UNL1        0.1179
      9 N          60.9572   89.1210    9.2734 N.ar    1  UNL1       -0.2391
     10 C          59.8715   88.7444    8.3094 C.ar    1  UNL1        0.1195
     11 C          59.5864   87.2988    8.0284 C.ar    1  UNL1        0.1195
     12 N          60.3870   86.2299    8.7114 N.ar    1  UNL1       -0.2406
     13 O          64.6751   82.3309   12.4073 O.3     1  UNL1       -0.4755
     14 C          63.9922   81.3365   13.2987 C.3     1  UNL1        0.2054
     15 C          62.5602   80.9656   13.0500 C.3     1  UNL1        0.0473
     16 C          60.2412   80.5233   14.1345 C.3     1  UNL1        0.0001
     17 C          61.5069   81.3243   14.0560 C.3     1  UNL1        0.0038
@<TRIPOS>BOND
     1    16    17    1
     2    17    15    1
     3    15    14    1
     4    14    13    1
     5    13     1    1
     6     1     2   ar
     7     2     3   ar
     8     3     4   ar
     9     4     7    1
    10     7     8   ar
    11     8     9   ar
    12     9    10   ar
    13    10    11   ar
    14    11    12   ar
    15     4     5   ar
    16     5     6   ar
    17     6     1   ar
    18    12     7   ar
@<TRIPOS>MOLECULE
*****
 17 18 0 0 0
SMALL
GASTEIGER

@<TRIPOS>ATOM
      1 C          63.7286   83.4169   11.2506 C.ar    1  UNL1        0.1386
      2 C          62.8590   84.2854   12.1104 C.ar    1  UNL1        0.0369
      3 C          62.0749   85.4058   11.4940 C.ar    1  UNL1        0.0047
      4 C          62.1603   85.6576   10.0178 C.ar    1  UNL1        0.0194
      5 C          63.0299   84.7890    9.1580 C.ar    1  UNL1        0.0047
      6 C          63.8141   83.6687    9.7744 C.ar    1  UNL1        0.0369
      7 C          61.3762   86.7780    9.4015 C.ar    1  UNL1        0.1004
      8 C          61.6687   88.1981    9.7856 C.ar    1  UNL1        0.1179
      9 N          60.8845   89.3185    9.1692 N.ar    1  UNL1       -0.2391
     10 C          59.8079   89.0187    8.1687 C.ar    1  UNL1        0.1195
     11 C          59.5155   87.5985    7.7846 C.ar    1  UNL1        0.1195
     12 N          60.2996   86.4782    8.4009 N.ar    1  UNL1       -0.2406
     13 O          64.5128   82.2965   11.8669 O.3     1  UNL1       -0.4755
     14 C          64.1250   81.7618   13.2137 C.3     1  UNL1        0.2054
     15 C          62.9079   80.8966   13.3550 C.3     1  UNL1        0.0473
     16 C          60.4360   80.6203   14.1059 C.3     1  UNL1        0.0001
     17 C          61.7236   81.3892   14.1329 C.3     1  UNL1        0.0038
@<TRIPOS>BOND
     1    16    17    1
     2    17    15    1
     3    15    14    1
     4    14    13    1
     5    13     1    1
     6     1     2   ar
     7     2     3   ar
     8     3     4   ar
     9     4     7    1
    10     7     8   ar
    11     8     9   ar
    12     9    10   ar
    13    10    11   ar
    14    11    12   ar
    15     4     5   ar
    16     5     6   ar
    17     6     1   ar
    18    12     7   ar
@<TRIPOS>MOLECULE
*****
 17 18 0 0 0
SMALL
GASTEIGER

@<TRIPOS>ATOM
      1 C          62.2493   89.5972   10.4694 C.ar    1  UNL1        0.1386
      2 C          62.8826   90.8759   10.0073 C.ar    1  UNL1        0.0369
      3 C          63.8292   91.6124   10.9081 C.ar    1  UNL1        0.0047
      4 C          64.1424   91.0701   12.2711 C.ar    1  UNL1        0.0194
      5 C          63.5090   89.7914   12.7333 C.ar    1  UNL1        0.0047
      6 C          62.5624   89.0549   11.8324 C.ar    1  UNL1        0.0369
      7 C          65.0890   91.8066   13.1720 C.ar    1  UNL1        0.1004
      8 C          66.1583   92.6789   12.5841 C.ar    1  UNL1        0.1179
      9 N          67.1049   93.4154   13.4850 N.ar    1  UNL1       -0.2391
     10 C          66.9821   93.2796   14.9738 C.ar    1  UNL1        0.1195
     11 C          65.9128   92.4073   15.5617 C.ar    1  UNL1        0.1195
     12 N          64.9662   91.6709   14.6608 N.ar    1  UNL1       -0.2406
     13 O          61.3027   88.8607    9.5685 O.3     1  UNL1       -0.4755
     14 C          60.5781   87.6478   10.0725 C.3     1  UNL1        0.2054
     15 C          60.9737   86.2836    9.5904 C.3     1  UNL1        0.0473
     16 C          62.9559   85.3159    8.2176 C.3     1  UNL1        0.0001
     17 C          62.4244   85.9168    9.4850 C.3     1  UNL1        0.0038
@<TRIPOS>BOND
     1    16    17    1
     2    17    15    1
     3    15    14    1
     4    14    13    1
     5    13     1    1
     6     1     2   ar
     7     2     3   ar
     8     3     4   ar
     9     4     7    1
    10     7     8   ar
    11     8     9   ar
    12     9    10   ar
    13    10    11   ar
    14    11    12   ar
    15     4     5   ar
    16     5     6   ar
    17     6     1   ar
    18    12     7   ar
@<TRIPOS>MOLECULE
*****
 17 18 0 0 0
SMALL
GASTEIGER

@<TRIPOS>ATOM
      1 C          63.9918   91.2088   12.2553 C.ar    1  UNL1        0.1386
      2 C          63.6066   89.8587   12.7833 C.ar    1  UNL1        0.0369
      3 C          62.8170   88.9151   11.9253 C.ar    1  UNL1        0.0047
      4 C          62.4126   89.3216   10.5393 C.ar    1  UNL1        0.0194
      5 C          62.7977   90.6717   10.0113 C.ar    1  UNL1        0.0047
      6 C          63.5873   91.6153   10.8693 C.ar    1  UNL1        0.0369
      7 C          61.6230   88.3780    9.6813 C.ar    1  UNL1        0.1004
      8 C          62.0681   86.9540    9.5266 C.ar    1  UNL1        0.1179
      9 N          61.2785   86.0104    8.6686 N.ar    1  UNL1       -0.2391
     10 C          60.0438   86.4908    7.9653 C.ar    1  UNL1        0.1195
     11 C          59.5987   87.9148    8.1201 C.ar    1  UNL1        0.1195
     12 N          60.3883   88.8584    8.9781 N.ar    1  UNL1       -0.2406
     13 O          64.7814   92.1524   13.1133 O.3     1  UNL1       -0.4755
     14 C          65.8009   93.0587   12.4895 C.3     1  UNL1        0.2054
     15 C          66.9859   92.4769   11.7774 C.3     1  UNL1        0.0473
     16 C          68.3834   92.1983    9.6050 C.3     1  UNL1        0.0001
     17 C          67.1339   92.6583   10.2957 C.3     1  UNL1        0.0038
@<TRIPOS>BOND
     1    16    17    1
     2    17    15    1
     3    15    14    1
     4    14    13    1
     5    13     1    1
     6     1     2   ar
     7     2     3   ar
     8     3     4   ar
     9     4     7    1
    10     7     8   ar
    11     8     9   ar
    12     9    10   ar
    13    10    11   ar
    14    11    12   ar
    15     4     5   ar
    16     5     6   ar
    17     6     1   ar
    18    12     7   ar
@<TRIPOS>MOLECULE
*****
 17 18 0 0 0
SMALL
GASTEIGER

@<TRIPOS>ATOM
      1 C          63.7924   90.5059   13.9733 C.ar    1  UNL1        0.1386
      2 C          63.3303   90.7499   12.5673 C.ar    1  UNL1        0.0369
      3 C          64.1658   91.5777   11.6362 C.ar    1  UNL1        0.0047
      4 C          65.4633   92.1613   12.1111 C.ar    1  UNL1        0.0194
      5 C          65.9254   91.9173   13.5171 C.ar    1  UNL1        0.0047
      6 C          65.0900   91.0896   14.4482 C.ar    1  UNL1        0.0369
      7 C          66.2988   92.9891   11.1800 C.ar    1  UNL1        0.1004
      8 C          66.2692   94.4857   11.2758 C.ar    1  UNL1        0.1179
      9 N          67.1047   95.3134   10.3447 N.ar    1  UNL1       -0.2391
     10 C          67.9697   94.6445    9.3179 C.ar    1  UNL1        0.1195
     11 C          67.9992   93.1479    9.2222 C.ar    1  UNL1        0.1195
     12 N          67.1637   92.3202   10.1533 N.ar    1  UNL1       -0.2406
     13 O          62.9570   89.6782   14.9043 O.3     1  UNL1       -0.4755
     14 C          63.1827   89.7568   16.3851 C.3     1  UNL1        0.2054
     15 C          63.0739   88.5202   17.2271 C.3     1  UNL1        0.0473
     16 C          62.5913   85.9673   17.2336 C.3     1  UNL1        0.0001
     17 C          63.2263   87.1677   16.5965 C.3     1  UNL1        0.0038
@<TRIPOS>BOND
     1    16    17    1
     2    17    15    1
     3    15    14    1
     4    14    13    1
     5    13     1    1
     6     1     2   ar
     7     2     3   ar
     8     3     4   ar
     9     4     7    1
    10     7     8   ar
    11     8     9   ar
    12     9    10   ar
    13    10    11   ar
    14    11    12   ar
    15     4     5   ar
    16     5     6   ar
    17     6     1   ar
    18    12     7   ar
@<TRIPOS>MOLECULE
*****
 17 18 0 0 0
SMALL
GASTEIGER

@<TRIPOS>ATOM
      1 C          63.9028   90.8986   12.4996 C.ar    1  UNL1        0.1386
      2 C          63.5055   89.5191   12.9344 C.ar    1  UNL1        0.0369
      3 C          62.7504   88.6252   11.9959 C.ar    1  UNL1        0.0047
      4 C          62.3927   89.1108   10.6226 C.ar    1  UNL1        0.0194
      5 C          62.7900   90.4903   10.1877 C.ar    1  UNL1        0.0047
      6 C          63.5451   91.3842   11.1262 C.ar    1  UNL1        0.0369
      7 C          61.6376   88.2169    9.6840 C.ar    1  UNL1        0.1004
      8 C          62.1641   86.8492    9.3645 C.ar    1  UNL1        0.1179
      9 N          61.4090   85.9553    8.4259 N.ar    1  UNL1       -0.2391
     10 C          60.1275   86.4291    7.8070 C.ar    1  UNL1        0.1195
     11 C          59.6010   87.7968    8.1266 C.ar    1  UNL1        0.1195
     12 N          60.3561   88.6907    9.0651 N.ar    1  UNL1       -0.2406
     13 O          64.6579   91.7925   13.4381 O.3     1  UNL1       -0.4755
     14 C          65.5882   91.1987   14.4539 C.3     1  UNL1        0.2054
     15 C          66.9929   91.7108   14.5744 C.3     1  UNL1        0.0473
     16 C          68.6931   93.2447   15.8018 C.3     1  UNL1        0.0001
     17 C          67.4158   92.4583   15.8042 C.3     1  UNL1        0.0038
@<TRIPOS>BOND
     1    16    17    1
     2    17    15    1
     3    15    14    1
     4    14    13    1
     5    13     1    1
     6     1     2   ar
     7     2     3   ar
     8     3     4   ar
     9     4     7    1
    10     7     8   ar
    11     8     9   ar
    12     9    10   ar
    13    10    11   ar
    14    11    12   ar
    15     4     5   ar
    16     5     6   ar
    17     6     1   ar
    18    12     7   ar
@<TRIPOS>MOLECULE
*****
 17 18 0 0 0
SMALL
GASTEIGER

@<TRIPOS>ATOM
      1 C          62.3673   89.1792   10.7387 C.ar    1  UNL1        0.1386
      2 C          62.8687   88.6730   12.0586 C.ar    1  UNL1        0.0369
      3 C          63.7964   89.5166   12.8820 C.ar    1  UNL1        0.0047
      4 C          64.2225   90.8663   12.3854 C.ar    1  UNL1        0.0194
      5 C          63.7210   91.3725   11.0655 C.ar    1  UNL1        0.0047
      6 C          62.7934   90.5289   10.2421 C.ar    1  UNL1        0.0369
      7 C          65.1501   91.7098   13.2088 C.ar    1  UNL1        0.1004
      8 C          65.7125   91.1729   14.4915 C.ar    1  UNL1        0.1179
      9 N          66.6402   92.0165   15.3149 N.ar    1  UNL1       -0.2391
     10 C          67.0054   93.3969   14.8556 C.ar    1  UNL1        0.1195
     11 C          66.4429   93.9338   13.5729 C.ar    1  UNL1        0.1195
     12 N          65.5153   93.0902   12.7495 N.ar    1  UNL1       -0.2406
     13 O          61.4396   88.3357    9.9153 O.3     1  UNL1       -0.4755
     14 C          60.1684   88.9238    9.3786 C.3     1  UNL1        0.2054
     15 C          59.6980   88.5627    8.0008 C.3     1  UNL1        0.0473
     16 C          59.9772   86.0118    7.5943 C.3     1  UNL1        0.0001
     17 C          59.0931   87.2143    7.7442 C.3     1  UNL1        0.0038
@<TRIPOS>BOND
     1    16    17    1
     2    17    15    1
     3    15    14    1
     4    14    13    1
     5    13     1    1
     6     1     2   ar
     7     2     3   ar
     8     3     4   ar
     9     4     7    1
    10     7     8   ar
    11     8     9   ar
    12     9    10   ar
    13    10    11   ar
    14    11    12   ar
    15     4     5   ar
    16     5     6   ar
    17     6     1   ar
    18    12     7   ar
@<TRIPOS>MOLECULE
*****
 17 18 0 0 0
SMALL
GASTEIGER

@<TRIPOS>ATOM
      1 C          60.6456   86.7611    8.5196 C.ar    1  UNL1        0.1386
      2 C          60.2765   87.1587    9.9181 C.ar    1  UNL1        0.0369
      3 C          61.0708   86.6396   11.0798 C.ar    1  UNL1        0.0047
      4 C          62.2342   85.7228   10.8431 C.ar    1  UNL1        0.0194
      5 C          62.6033   85.3252    9.4446 C.ar    1  UNL1        0.0047
      6 C          61.8089   85.8443    8.2829 C.ar    1  UNL1        0.0369
      7 C          63.0285   85.2037   12.0048 C.ar    1  UNL1        0.1004
      8 C          63.5423   83.7945   11.9922 C.ar    1  UNL1        0.1179
      9 N          64.3366   83.2754   13.1539 N.ar    1  UNL1       -0.2391
     10 C          64.6171   84.1654   14.3282 C.ar    1  UNL1        0.1195
     11 C          64.1034   85.5746   14.3408 C.ar    1  UNL1        0.1195
     12 N          63.3091   86.0937   13.1791 N.ar    1  UNL1       -0.2406
     13 O          59.8513   87.2802    7.3579 O.3     1  UNL1       -0.4755
     14 C          59.2280   88.6429    7.4246 C.3     1  UNL1        0.2054
     15 C          59.5570   89.6699    6.3820 C.3     1  UNL1        0.0473
     16 C          58.8162   91.6593    4.8840 C.3     1  UNL1        0.0001
     17 C          58.4693   90.5244    5.8014 C.3     1  UNL1        0.0038
@<TRIPOS>BOND
     1    16    17    1
     2    17    15    1
     3    15    14    1
     4    14    13    1
     5    13     1    1
     6     1     2   ar
     7     2     3   ar
     8     3     4   ar
     9     4     7    1
    10     7     8   ar
    11     8     9   ar
    12     9    10   ar
    13    10    11   ar
    14    11    12   ar
    15     4     5   ar
    16     5     6   ar
    17     6     1   ar
    18    12     7   ar
@<TRIPOS>MOLECULE
*****
 17 18 0 0 0
SMALL
GASTEIGER

@<TRIPOS>ATOM
      1 C          63.5159   84.1027   11.5840 C.ar    1  UNL1        0.1386
      2 C          62.4832   84.9828   12.2235 C.ar    1  UNL1        0.0369
      3 C          61.6152   85.8613   11.3721 C.ar    1  UNL1        0.0047
      4 C          61.7800   85.8598    9.8812 C.ar    1  UNL1        0.0194
      5 C          62.8127   84.9797    9.2418 C.ar    1  UNL1        0.0047
      6 C          63.6807   84.1012   10.0932 C.ar    1  UNL1        0.0369
      7 C          60.9120   86.7383    9.0298 C.ar    1  UNL1        0.1004
      8 C          60.0422   86.1315    7.9691 C.ar    1  UNL1        0.1179
      9 N          59.1743   87.0100    7.1177 N.ar    1  UNL1       -0.2391
     10 C          59.1762   88.4953    7.3270 C.ar    1  UNL1        0.1195
     11 C          60.0460   89.1021    8.3878 C.ar    1  UNL1        0.1195
     12 N          60.9139   88.2236    9.2392 N.ar    1  UNL1       -0.2406
     13 O          64.3838   83.2242   12.4354 O.3     1  UNL1       -0.4755
     14 C          64.4888   83.4767   13.9103 C.3     1  UNL1        0.2054
     15 C          65.3350   84.6056   14.4196 C.3     1  UNL1        0.0473
     16 C          63.6868   85.7058   16.0998 C.3     1  UNL1        0.0001
     17 C          64.6856   85.8326   14.9879 C.3     1  UNL1        0.0038
@<TRIPOS>BOND
     1    16    17    1
     2    17    15    1
     3    15    14    1
     4    14    13    1
     5    13     1    1
     6     1     2   ar
     7     2     3   ar
     8     3     4   ar
     9     4     7    1
    10     7     8   ar
    11     8     9   ar
    12     9    10   ar
    13    10    11   ar
    14    11    12   ar
    15     4     5   ar
    16     5     6   ar
    17     6     1   ar
    18    12     7   ar
