@<TRIPOS>MOLECULE
*****
 52 55 0 0 0
SMALL
GASTEIGER

@<TRIPOS>ATOM
      1 C          62.4015   87.9678   11.1841 C.3     1  UNL1        0.0760
      2 C          60.7199   88.5575    9.2934 C.2     1  UNL1        0.2403
      3 O          60.0951   89.5987   10.1739 O.2     1  UNL1       -0.2733
      4 N          61.8732   87.7420    9.7985 N.am    1  UNL1       -0.3043
      5 H          62.2834   87.0586    9.2206 H       1  UNL1        0.1494
      6 C          60.1916   88.3317    7.9078 C.3     1  UNL1        0.1496
      7 N          58.8990   91.0746    5.3474 N.am    1  UNL1       -0.2567
      8 C          57.6041   91.5729    4.7774 C.3     1  UNL1        0.1168
      9 C          58.8979   89.9523    6.3426 C.2     1  UNL1        0.3046
     10 O          57.6018   89.3283    6.7678 O.2     1  UNL1       -0.2526
     11 N          60.1928   89.4540    6.9126 N.am    1  UNL1       -0.2824
     12 H          61.0435   89.8636    6.6335 H       1  UNL1        0.1514
     13 C          60.1951   91.6986    4.9222 C.3     1  UNL1        0.1413
     14 C          59.8210   93.2512    1.3845 C.ar    1  UNL1        0.0875
     15 N          59.2277   92.7949    2.6844 N.ar    1  UNL1       -0.2453
     16 C          60.3388   92.2604    3.5387 C.ar    1  UNL1        0.0858
     17 C          61.6187   92.3865    2.7669 C.ar    1  UNL1        0.0530
     18 S          61.2988   92.9989    1.4355 S.2     1  UNL1       -0.0705
     19 C          59.0315   95.3436    0.0621 C.3     1  UNL1        0.0069
     20 C          59.0686   93.8541    0.2354 C.3     1  UNL1        0.0465
     21 C          58.3534   92.9675   -0.7405 C.3     1  UNL1        0.0069
     22 C          59.6622   86.9837    7.5175 C.3     1  UNL1        0.0270
     23 C          60.5597   85.9941    6.8356 C.3     1  UNL1        0.0022
     24 C          58.2351   86.6253    7.8090 C.3     1  UNL1        0.0022
     25 C          63.0813   89.2604   11.5262 C.3     1  UNL1        0.0216
     26 C          62.7385   89.9738   12.8003 C.3     1  UNL1        0.0217
     27 C          63.7977   90.7328   13.5434 C.3     1  UNL1        0.0792
     28 N          64.6064   91.7793   12.8356 N.am    1  UNL1       -0.2720
     29 C          66.0281   92.0308   13.2425 C.2     1  UNL1        0.4019
     30 O          66.6411   91.2359   14.3571 O.2     1  UNL1       -0.2264
     31 H          64.2041   92.3010   12.1040 H       1  UNL1        0.1527
     32 O          66.8368   93.0772   12.5347 O.3     1  UNL1       -0.4291
     33 C          66.1716   94.3205   12.0232 C.3     1  UNL1        0.2447
     34 C          66.6704   94.9767   10.7700 C.ar    1  UNL1        0.0714
     35 C          67.2916   94.2788    9.5965 C.ar    1  UNL1        0.1053
     36 N          67.6407   95.3168    8.5714 N.ar    1  UNL1       -0.2350
     37 C          67.2352   96.6562    9.1114 C.ar    1  UNL1        0.1343
     38 S          66.6355   96.4460   10.4701 S.2     1  UNL1       -0.0652
     39 C          64.0481   90.4454   14.9941 C.3     1  UNL1        0.0460
     40 C          63.8518   89.0576   15.5285 C.ar    1  UNL1       -0.0205
     41 C          64.4601   87.8864   14.8158 C.ar    1  UNL1       -0.0042
     42 C          64.2638   86.4987   15.3502 C.ar    1  UNL1       -0.0003
     43 C          63.4591   86.2822   16.5974 C.ar    1  UNL1       -0.0000
     44 C          62.8507   87.4535   17.3102 C.ar    1  UNL1       -0.0003
     45 C          63.0471   88.8412   16.7757 C.ar    1  UNL1       -0.0042
     46 C          62.2500   86.9009   12.2277 C.3     1  UNL1        0.0459
     47 C          62.6865   85.4964   11.9332 C.ar    1  UNL1       -0.0205
     48 C          62.9485   85.0735   10.5181 C.ar    1  UNL1       -0.0042
     49 C          63.3850   83.6690   10.2236 C.ar    1  UNL1       -0.0003
     50 C          63.5595   82.6873   11.3442 C.ar    1  UNL1       -0.0000
     51 C          63.2975   83.1102   12.7594 C.ar    1  UNL1       -0.0003
     52 C          62.8610   84.5147   13.0539 C.ar    1  UNL1       -0.0042
@<TRIPOS>BOND
     1    19    20    1
     2    20    21    1
     3    20    14    1
     4    14    15   ar
     5    15    16   ar
     6    16    13    1
     7    13     7    1
     8     7     8    1
     9     7     9   am
    10     9    10    2
    11     9    11   am
    12     6    11    1
    13     6     2    1
    14     2     3    2
    15     2     4   am
    16     4     1    1
    17     1    25    1
    18    25    26    1
    19    27    26    1
    20    27    39    1
    21    39    40    1
    22    40    41   ar
    23    41    42   ar
    24    42    43   ar
    25    43    44   ar
    26    44    45   ar
    27    27    28    1
    28    28    29   am
    29    29    30    2
    30    29    32    1
    31    32    33    1
    32    33    34    1
    33    34    35   ar
    34    35    36   ar
    35    36    37   ar
    36    37    38   ar
    37     1    46    1
    38    46    47    1
    39    47    48   ar
    40    48    49   ar
    41    49    50   ar
    42    50    51   ar
    43    51    52   ar
    44     6    22    1
    45    22    23    1
    46    22    24    1
    47    16    17   ar
    48    17    18   ar
    49    18    14   ar
    50    45    40   ar
    51    38    34   ar
    52    52    47   ar
    53    11    12    1
    54     4     5    1
    55    28    31    1
@<TRIPOS>MOLECULE
*****
 52 55 0 0 0
SMALL
GASTEIGER

@<TRIPOS>ATOM
      1 C          63.5844   86.1302   13.3043 C.3     1  UNL1        0.0760
      2 C          62.8804   88.4353   12.3343 C.2     1  UNL1        0.2403
      3 O          61.5633   87.8552   11.9116 O.2     1  UNL1       -0.2733
      4 N          63.8910   87.5728   13.0307 N.am    1  UNL1       -0.3043
      5 H          64.7554   87.9536   13.3081 H       1  UNL1        0.1494
      6 C          63.1869   89.8779   12.0607 C.3     1  UNL1        0.1496
      7 N          65.4410   91.6933   14.7761 N.am    1  UNL1       -0.2567
      8 C          65.3324   92.2029   16.1827 C.3     1  UNL1        0.1168
      9 C          64.2597   91.0404   14.1217 C.2     1  UNL1        0.3046
     10 O          62.9698   90.8971   14.8739 O.2     1  UNL1       -0.2526
     11 N          64.3682   90.5309   12.7151 N.am    1  UNL1       -0.2824
     12 H          65.2148   90.6249   12.2214 H       1  UNL1        0.1514
     13 C          66.7308   91.8367   14.0239 C.3     1  UNL1        0.1413
     14 C          67.3062   93.4468   10.5394 C.ar    1  UNL1        0.0875
     15 N          67.5264   92.3341   11.5210 N.ar    1  UNL1       -0.2453
     16 C          66.7845   92.6730   12.7798 C.ar    1  UNL1        0.0858
     17 C          66.1059   93.9952   12.5763 C.ar    1  UNL1        0.0530
     18 S          66.4283   94.4734   11.1916 S.2     1  UNL1       -0.0705
     19 C          68.7238   92.4062    8.6268 C.3     1  UNL1        0.0069
     20 C          67.8657   93.5200    9.1495 C.3     1  UNL1        0.0465
     21 C          67.5672   94.7069    8.2824 C.3     1  UNL1        0.0069
     22 C          62.3122   90.6676   11.1327 C.3     1  UNL1        0.0270
     23 C          60.8470   90.8085   11.4214 C.3     1  UNL1        0.0022
     24 C          62.9027   91.3165    9.9160 C.3     1  UNL1        0.0022
     25 C          62.9851   85.2737   12.2286 C.3     1  UNL1        0.0216
     26 C          63.6438   85.1885   10.8837 C.3     1  UNL1        0.0217
     27 C          62.9596   84.4717    9.7576 C.3     1  UNL1        0.0792
     28 N          62.5280   83.0453    9.9287 N.am    1  UNL1       -0.2720
     29 C          63.5405   81.9904   10.2634 C.2     1  UNL1        0.4019
     30 O          64.9845   82.3618   10.4271 O.2     1  UNL1       -0.2264
     31 H          61.5803   82.8016    9.8213 H       1  UNL1        0.1527
     32 O          63.1089   80.5640   10.4345 O.3     1  UNL1       -0.4291
     33 C          62.7660   80.0427   11.7985 C.3     1  UNL1        0.2447
     34 C          62.8190   80.9573   12.9862 C.ar    1  UNL1        0.0714
     35 C          64.0621   81.4338   13.6773 C.ar    1  UNL1        0.1053
     36 N          63.6496   82.3271   14.8096 N.ar    1  UNL1       -0.2350
     37 C          62.1516   82.4026   14.8183 C.ar    1  UNL1        0.1343
     38 S          61.6382   81.5561   13.6914 S.2     1  UNL1       -0.0652
     39 C          62.7071   85.1812    8.4604 C.3     1  UNL1        0.0460
     40 C          61.5369   86.1104    8.3291 C.ar    1  UNL1       -0.0205
     41 C          60.3116   85.6726    7.5828 C.ar    1  UNL1       -0.0042
     42 C          59.1414   86.6018    7.4517 C.ar    1  UNL1       -0.0003
     43 C          59.1966   87.9688    8.0667 C.ar    1  UNL1       -0.0000
     44 C          60.4218   88.4066    8.8130 C.ar    1  UNL1       -0.0003
     45 C          61.5920   87.4774    8.9442 C.ar    1  UNL1       -0.0042
     46 C          63.8772   85.5441   14.6537 C.3     1  UNL1        0.0459
     47 C          63.4950   86.2933   15.8958 C.ar    1  UNL1       -0.0205
     48 C          63.5921   87.7897   15.9288 C.ar    1  UNL1       -0.0042
     49 C          63.2098   88.5389   17.1708 C.ar    1  UNL1       -0.0003
     50 C          62.7304   87.7916   18.3798 C.ar    1  UNL1       -0.0000
     51 C          62.6333   86.2950   18.3468 C.ar    1  UNL1       -0.0003
     52 C          63.0156   85.5459   17.1048 C.ar    1  UNL1       -0.0042
@<TRIPOS>BOND
     1    19    20    1
     2    20    21    1
     3    20    14    1
     4    14    15   ar
     5    15    16   ar
     6    16    13    1
     7    13     7    1
     8     7     8    1
     9     7     9   am
    10     9    10    2
    11     9    11   am
    12     6    11    1
    13     6     2    1
    14     2     3    2
    15     2     4   am
    16     4     1    1
    17     1    25    1
    18    25    26    1
    19    27    26    1
    20    27    39    1
    21    39    40    1
    22    40    41   ar
    23    41    42   ar
    24    42    43   ar
    25    43    44   ar
    26    44    45   ar
    27    27    28    1
    28    28    29   am
    29    29    30    2
    30    29    32    1
    31    32    33    1
    32    33    34    1
    33    34    35   ar
    34    35    36   ar
    35    36    37   ar
    36    37    38   ar
    37     1    46    1
    38    46    47    1
    39    47    48   ar
    40    48    49   ar
    41    49    50   ar
    42    50    51   ar
    43    51    52   ar
    44     6    22    1
    45    22    23    1
    46    22    24    1
    47    16    17   ar
    48    17    18   ar
    49    18    14   ar
    50    45    40   ar
    51    38    34   ar
    52    52    47   ar
    53    11    12    1
    54     4     5    1
    55    28    31    1
@<TRIPOS>MOLECULE
*****
 52 55 0 0 0
SMALL
GASTEIGER

@<TRIPOS>ATOM
      1 C          61.9598   89.1174   11.2129 C.3     1  UNL1        0.0760
      2 C          62.1566   86.5372   11.4460 C.2     1  UNL1        0.2403
      3 O          60.9438   86.5244   12.3286 O.2     1  UNL1       -0.2733
      4 N          62.6646   87.8337   10.8882 N.am    1  UNL1       -0.3043
      5 H          63.4606   87.8421   10.3090 H       1  UNL1        0.1494
      6 C          62.8614   85.2536   11.1213 C.3     1  UNL1        0.1496
      7 N          63.2457   82.1011   13.5012 N.am    1  UNL1       -0.2567
      8 C          62.6623   80.7295   13.6694 C.3     1  UNL1        0.1168
      9 C          62.7619   82.9915   12.3954 C.2     1  UNL1        0.3046
     10 O          61.6945   82.5104   11.4577 O.2     1  UNL1       -0.2526
     11 N          63.3453   84.3631   12.2272 N.am    1  UNL1       -0.2824
     12 H          64.0459   84.6789   12.8427 H       1  UNL1        0.1514
     13 C          64.3131   82.5822   14.4389 C.3     1  UNL1        0.1413
     14 C          63.7987   86.0847   16.0307 C.ar    1  UNL1        0.0875
     15 N          63.4294   84.6365   15.9032 N.ar    1  UNL1       -0.2453
     16 C          64.3335   84.0158   14.8799 C.ar    1  UNL1        0.0858
     17 C          65.2616   85.0805   14.3748 C.ar    1  UNL1        0.0530
     18 S          64.9312   86.3591   15.0860 S.2     1  UNL1       -0.0705
     19 C          63.1283   88.5361   16.5703 C.3     1  UNL1        0.0069
     20 C          63.1496   87.0832   16.9426 C.3     1  UNL1        0.0465
     21 C          62.5219   86.6288   18.2269 C.3     1  UNL1        0.0069
     22 C          63.0824   84.8604    9.6908 C.3     1  UNL1        0.0270
     23 C          63.9537   83.6844    9.3621 C.3     1  UNL1        0.0022
     24 C          62.4320   85.6431    8.5888 C.3     1  UNL1        0.0022
     25 C          62.6805   90.2008   11.9590 C.3     1  UNL1        0.0216
     26 C          63.7244   89.8447   12.9755 C.3     1  UNL1        0.0217
     27 C          64.6135   90.9113   13.5429 C.3     1  UNL1        0.0792
     28 N          64.4885   92.3264   13.0613 N.am    1  UNL1       -0.2720
     29 C          65.3249   92.8040   11.9114 C.2     1  UNL1        0.4019
     30 O          66.2863   91.8665   11.2430 O.2     1  UNL1       -0.2264
     31 H          63.8575   92.9417   13.5000 H       1  UNL1        0.1527
     32 O          65.1999   94.2191   11.4298 O.3     1  UNL1       -0.4291
     33 C          66.4274   95.0631   11.2552 C.3     1  UNL1        0.2447
     34 C          66.8784   95.4556    9.8795 C.ar    1  UNL1        0.0714
     35 C          67.3190   94.5177    8.7950 C.ar    1  UNL1        0.1053
     36 N          67.6808   95.3373    7.5920 N.ar    1  UNL1       -0.2350
     37 C          67.4638   96.7818    7.9329 C.ar    1  UNL1        0.1343
     38 S          66.9678   96.8549    9.3467 S.2     1  UNL1       -0.0652
     39 C          65.6276   90.5628   14.5917 C.3     1  UNL1        0.0460
     40 C          66.7398   91.5188   14.9066 C.ar    1  UNL1       -0.0205
     41 C          66.5698   92.5342   15.9975 C.ar    1  UNL1       -0.0042
     42 C          67.6820   93.4901   16.3123 C.ar    1  UNL1       -0.0003
     43 C          68.9643   93.4307   15.5363 C.ar    1  UNL1       -0.0000
     44 C          69.1343   92.4153   14.4454 C.ar    1  UNL1       -0.0003
     45 C          68.0221   91.4593   14.1306 C.ar    1  UNL1       -0.0042
     46 C          60.5341   89.3175   10.7916 C.3     1  UNL1        0.0459
     47 C          60.0637   88.7970    9.4658 C.ar    1  UNL1       -0.0205
     48 C          59.5753   87.3839    9.3453 C.ar    1  UNL1       -0.0042
     49 C          59.1050   86.8634    8.0195 C.ar    1  UNL1       -0.0003
     50 C          59.1230   87.7559    6.8141 C.ar    1  UNL1       -0.0000
     51 C          59.6114   89.1691    6.9346 C.ar    1  UNL1       -0.0003
     52 C          60.0818   89.6897    8.2604 C.ar    1  UNL1       -0.0042
@<TRIPOS>BOND
     1    19    20    1
     2    20    21    1
     3    20    14    1
     4    14    15   ar
     5    15    16   ar
     6    16    13    1
     7    13     7    1
     8     7     8    1
     9     7     9   am
    10     9    10    2
    11     9    11   am
    12     6    11    1
    13     6     2    1
    14     2     3    2
    15     2     4   am
    16     4     1    1
    17     1    25    1
    18    25    26    1
    19    27    26    1
    20    27    39    1
    21    39    40    1
    22    40    41   ar
    23    41    42   ar
    24    42    43   ar
    25    43    44   ar
    26    44    45   ar
    27    27    28    1
    28    28    29   am
    29    29    30    2
    30    29    32    1
    31    32    33    1
    32    33    34    1
    33    34    35   ar
    34    35    36   ar
    35    36    37   ar
    36    37    38   ar
    37     1    46    1
    38    46    47    1
    39    47    48   ar
    40    48    49   ar
    41    49    50   ar
    42    50    51   ar
    43    51    52   ar
    44     6    22    1
    45    22    23    1
    46    22    24    1
    47    16    17   ar
    48    17    18   ar
    49    18    14   ar
    50    45    40   ar
    51    38    34   ar
    52    52    47   ar
    53    11    12    1
    54     4     5    1
    55    28    31    1
@<TRIPOS>MOLECULE
*****
 52 55 0 0 0
SMALL
GASTEIGER

@<TRIPOS>ATOM
      1 C          63.1351   86.0219   12.8363 C.3     1  UNL1        0.0760
      2 C          63.7653   88.0389   14.3478 C.2     1  UNL1        0.2403
      3 O          63.8229   87.1286   15.5386 O.2     1  UNL1       -0.2733
      4 N          63.4214   87.4856   12.9966 N.am    1  UNL1       -0.3043
      5 H          63.3836   88.0830   12.2151 H       1  UNL1        0.1494
      6 C          64.0516   89.5026   14.5081 C.3     1  UNL1        0.1496
      7 N          64.1752   91.4316   11.0420 N.am    1  UNL1       -0.2567
      8 C          63.2635   91.7714    9.9003 C.3     1  UNL1        0.1168
      9 C          63.6576   90.6370   12.2042 C.2     1  UNL1        0.3046
     10 O          62.2283   90.1821   12.2247 O.2     1  UNL1       -0.2526
     11 N          64.5692   90.2972   13.3459 N.am    1  UNL1       -0.2824
     12 H          65.5073   90.5958   13.3325 H       1  UNL1        0.1514
     13 C          65.6044   91.8864   11.0215 C.3     1  UNL1        0.1413
     14 C          67.3169   93.2435   14.2295 C.ar    1  UNL1        0.0875
     15 N          66.9767   92.1130   13.3042 N.ar    1  UNL1       -0.2453
     16 C          66.1594   92.6678   12.1755 C.ar    1  UNL1        0.0858
     17 C          65.9945   94.1413   12.4031 C.ar    1  UNL1        0.0530
     18 S          66.7099   94.4971   13.6726 S.2     1  UNL1       -0.0705
     19 C          68.0549   91.8927   16.3226 C.3     1  UNL1        0.0069
     20 C          68.1227   93.1389   15.4904 C.3     1  UNL1        0.0465
     21 C          68.9964   94.2803   15.9190 C.3     1  UNL1        0.0069
     22 C          63.8203   90.1716   15.8305 C.3     1  UNL1        0.0270
     23 C          63.0848   89.4475   16.9189 C.3     1  UNL1        0.0022
     24 C          64.3246   91.5647   16.0646 C.3     1  UNL1        0.0022
     25 C          62.0064   85.5703   11.9576 C.3     1  UNL1        0.0216
     26 C          61.2704   86.5661   11.1110 C.3     1  UNL1        0.0217
     27 C          61.7487   86.8683    9.7218 C.3     1  UNL1        0.0792
     28 N          61.2817   88.1098    9.0213 N.am    1  UNL1       -0.2720
     29 C          59.8730   88.1996    8.5137 C.2     1  UNL1        0.4019
     30 O          58.9314   87.0480    8.7067 O.2     1  UNL1       -0.2264
     31 H          61.8997   88.8656    8.8946 H       1  UNL1        0.1527
     32 O          59.4059   89.4410    7.8132 O.3     1  UNL1       -0.4291
     33 C          59.0201   89.3848    6.3648 C.3     1  UNL1        0.2447
     34 C          59.1803   90.5987    5.4983 C.ar    1  UNL1        0.0714
     35 C          58.0874   91.5421    5.0916 C.ar    1  UNL1        0.1053
     36 N          58.6932   92.6088    4.2283 N.ar    1  UNL1       -0.2350
     37 C          60.1606   92.3246    4.1015 C.ar    1  UNL1        0.1343
     38 S          60.4616   91.0823    4.8865 S.2     1  UNL1       -0.0652
     39 C          62.6941   85.9292    9.0331 C.3     1  UNL1        0.0460
     40 C          62.2987   85.2825    7.7386 C.ar    1  UNL1       -0.0205
     41 C          63.3540   84.8175    6.7795 C.ar    1  UNL1       -0.0042
     42 C          62.9586   84.1708    5.4851 C.ar    1  UNL1       -0.0003
     43 C          61.5079   83.9893    5.1499 C.ar    1  UNL1       -0.0000
     44 C          60.4526   84.4543    6.1090 C.ar    1  UNL1       -0.0003
     45 C          60.8480   85.1009    7.4034 C.ar    1  UNL1       -0.0042
     46 C          63.9775   85.0098   13.5548 C.3     1  UNL1        0.0459
     47 C          63.5676   83.5670   13.5687 C.ar    1  UNL1       -0.0205
     48 C          64.2625   82.5812   12.6769 C.ar    1  UNL1       -0.0042
     49 C          63.8526   81.1384   12.6909 C.ar    1  UNL1       -0.0003
     50 C          62.7477   80.6813   13.5966 C.ar    1  UNL1       -0.0000
     51 C          62.0527   81.6671   14.4884 C.ar    1  UNL1       -0.0003
     52 C          62.4626   83.1099   14.4745 C.ar    1  UNL1       -0.0042
@<TRIPOS>BOND
     1    19    20    1
     2    20    21    1
     3    20    14    1
     4    14    15   ar
     5    15    16   ar
     6    16    13    1
     7    13     7    1
     8     7     8    1
     9     7     9   am
    10     9    10    2
    11     9    11   am
    12     6    11    1
    13     6     2    1
    14     2     3    2
    15     2     4   am
    16     4     1    1
    17     1    25    1
    18    25    26    1
    19    27    26    1
    20    27    39    1
    21    39    40    1
    22    40    41   ar
    23    41    42   ar
    24    42    43   ar
    25    43    44   ar
    26    44    45   ar
    27    27    28    1
    28    28    29   am
    29    29    30    2
    30    29    32    1
    31    32    33    1
    32    33    34    1
    33    34    35   ar
    34    35    36   ar
    35    36    37   ar
    36    37    38   ar
    37     1    46    1
    38    46    47    1
    39    47    48   ar
    40    48    49   ar
    41    49    50   ar
    42    50    51   ar
    43    51    52   ar
    44     6    22    1
    45    22    23    1
    46    22    24    1
    47    16    17   ar
    48    17    18   ar
    49    18    14   ar
    50    45    40   ar
    51    38    34   ar
    52    52    47   ar
    53    11    12    1
    54     4     5    1
    55    28    31    1
@<TRIPOS>MOLECULE
*****
 52 55 0 0 0
SMALL
GASTEIGER

@<TRIPOS>ATOM
      1 C          62.5560   86.2223   10.3970 C.3     1  UNL1        0.0760
      2 C          61.0296   88.2330   11.0114 C.2     1  UNL1        0.2403
      3 O          59.9268   87.6503   10.1783 O.2     1  UNL1       -0.2733
      4 N          62.3443   87.5190   11.1208 N.am    1  UNL1       -0.3043
      5 H          63.0682   87.9014   11.6676 H       1  UNL1        0.1494
      6 C          60.8179   89.5296   11.7352 C.3     1  UNL1        0.1496
      7 N          64.0319   91.8393   11.4427 N.am    1  UNL1       -0.2567
      8 C          64.8899   92.4591   10.3798 C.3     1  UNL1        0.1168
      9 C          62.8539   90.9944   11.0575 C.2     1  UNL1        0.3046
     10 O          62.5338   90.7692    9.6094 O.2     1  UNL1       -0.2526
     11 N          61.9959   90.3746   12.1204 N.am    1  UNL1       -0.2824
     12 H          62.2060   90.5224   13.0708 H       1  UNL1        0.1514
     13 C          64.3519   92.0644   12.8907 C.3     1  UNL1        0.1413
     14 C          67.7547   92.5768   14.6864 C.ar    1  UNL1        0.0875
     15 N          66.2567   92.6523   14.6716 N.ar    1  UNL1       -0.2453
     16 C          65.7809   92.1601   13.3370 C.ar    1  UNL1        0.0858
     17 C          66.9848   91.7804   12.5269 C.ar    1  UNL1        0.0530
     18 S          68.2047   92.0379   13.3608 S.2     1  UNL1       -0.0705
     19 C          69.1156   91.9349   16.8044 C.3     1  UNL1        0.0069
     20 C          68.6462   92.9710   15.8265 C.3     1  UNL1        0.0465
     21 C          69.0682   94.4012   15.9888 C.3     1  UNL1        0.0069
     22 C          59.4282   89.9813   12.0738 C.3     1  UNL1        0.0270
     23 C          58.5613   89.1390   12.9620 C.3     1  UNL1        0.0022
     24 C          58.9055   91.2754   11.5242 C.3     1  UNL1        0.0022
     25 C          62.2128   84.9248   11.0668 C.3     1  UNL1        0.0216
     26 C          62.3040   84.8040   12.5591 C.3     1  UNL1        0.0217
     27 C          63.5635   84.2942   13.1947 C.3     1  UNL1        0.0792
     28 N          63.9873   84.8095   14.5381 N.am    1  UNL1       -0.2720
     29 C          62.9771   84.9587   15.6370 C.2     1  UNL1        0.4019
     30 O          61.5433   84.5926   15.3923 O.2     1  UNL1       -0.2264
     31 H          64.9285   85.0497   14.6987 H       1  UNL1        0.1527
     32 O          63.4010   85.4739   16.9804 O.3     1  UNL1       -0.4291
     33 C          63.0136   86.8582   17.4091 C.3     1  UNL1        0.2447
     34 C          63.3445   88.0334   16.5377 C.ar    1  UNL1        0.0714
     35 C          64.0628   87.9808   15.2219 C.ar    1  UNL1        0.1053
     36 N          64.1775   89.3825   14.7001 N.ar    1  UNL1       -0.2350
     37 C          63.5301   90.3013   15.6934 C.ar    1  UNL1        0.1343
     38 S          63.0153   89.4675   16.8290 S.2     1  UNL1       -0.0652
     39 C          64.3991   83.2692   12.4868 C.3     1  UNL1        0.0460
     40 C          63.7848   81.9722   12.0503 C.ar    1  UNL1       -0.0205
     41 C          63.2243   81.0268   13.0711 C.ar    1  UNL1       -0.0042
     42 C          62.6100   79.7298   12.6346 C.ar    1  UNL1       -0.0003
     43 C          62.5562   79.3783   11.1774 C.ar    1  UNL1       -0.0000
     44 C          63.1167   80.3238   10.1566 C.ar    1  UNL1       -0.0003
     45 C          63.7310   81.6207   10.5931 C.ar    1  UNL1       -0.0042
     46 C          63.1111   86.2232    9.0035 C.3     1  UNL1        0.0459
     47 C          62.3485   85.5652    7.8920 C.ar    1  UNL1       -0.0205
     48 C          60.8604   85.7311    7.8027 C.ar    1  UNL1       -0.0042
     49 C          60.0977   85.0730    6.6912 C.ar    1  UNL1       -0.0003
     50 C          60.8232   84.2491    5.6691 C.ar    1  UNL1       -0.0000
     51 C          62.3113   84.0831    5.7584 C.ar    1  UNL1       -0.0003
     52 C          63.0740   84.7412    6.8698 C.ar    1  UNL1       -0.0042
@<TRIPOS>BOND
     1    19    20    1
     2    20    21    1
     3    20    14    1
     4    14    15   ar
     5    15    16   ar
     6    16    13    1
     7    13     7    1
     8     7     8    1
     9     7     9   am
    10     9    10    2
    11     9    11   am
    12     6    11    1
    13     6     2    1
    14     2     3    2
    15     2     4   am
    16     4     1    1
    17     1    25    1
    18    25    26    1
    19    27    26    1
    20    27    39    1
    21    39    40    1
    22    40    41   ar
    23    41    42   ar
    24    42    43   ar
    25    43    44   ar
    26    44    45   ar
    27    27    28    1
    28    28    29   am
    29    29    30    2
    30    29    32    1
    31    32    33    1
    32    33    34    1
    33    34    35   ar
    34    35    36   ar
    35    36    37   ar
    36    37    38   ar
    37     1    46    1
    38    46    47    1
    39    47    48   ar
    40    48    49   ar
    41    49    50   ar
    42    50    51   ar
    43    51    52   ar
    44     6    22    1
    45    22    23    1
    46    22    24    1
    47    16    17   ar
    48    17    18   ar
    49    18    14   ar
    50    45    40   ar
    51    38    34   ar
    52    52    47   ar
    53    11    12    1
    54     4     5    1
    55    28    31    1
@<TRIPOS>MOLECULE
*****
 52 55 0 0 0
SMALL
GASTEIGER

@<TRIPOS>ATOM
      1 C          61.8728   89.3689   11.0298 C.3     1  UNL1        0.0760
      2 C          62.0787   86.7933   11.3017 C.2     1  UNL1        0.2403
      3 O          60.6772   86.7374   11.8333 O.2     1  UNL1       -0.2733
      4 N          62.6765   88.1091   10.8999 N.am    1  UNL1       -0.3043
      5 H          63.5964   88.1459   10.5510 H       1  UNL1        0.1494
      6 C          62.8825   85.5335   11.1719 C.3     1  UNL1        0.1496
      7 N          64.2012   85.0049   14.8775 N.am    1  UNL1       -0.2567
      8 C          64.3976   85.7984   16.1352 C.3     1  UNL1        0.1168
      9 C          63.6401   85.6659   13.6535 C.2     1  UNL1        0.3046
     10 O          63.2753   87.1206   13.6872 O.2     1  UNL1       -0.2526
     11 N          63.4437   84.8724   12.3958 N.am    1  UNL1       -0.2824
     12 H          63.6831   83.9177   12.3737 H       1  UNL1        0.1514
     13 C          64.5660   83.5503   14.8437 C.3     1  UNL1        0.1413
     14 C          62.8643   80.9262   12.5451 C.ar    1  UNL1        0.0875
     15 N          64.0459   81.7720   12.9170 N.ar    1  UNL1       -0.2453
     16 C          63.6798   82.5711   14.1324 C.ar    1  UNL1        0.0858
     17 C          62.2718   82.2192   14.5117 C.ar    1  UNL1        0.0530
     18 S          61.7678   81.2026   13.5307 S.2     1  UNL1       -0.0705
     19 C          63.0075   80.4686    9.9916 C.3     1  UNL1        0.0069
     20 C          62.7918   79.9716   11.3903 C.3     1  UNL1        0.0465
     21 C          62.5036   78.5199   11.6342 C.3     1  UNL1        0.0069
     22 C          63.1251   84.9348    9.8181 C.3     1  UNL1        0.0270
     23 C          63.8861   83.6483    9.6924 C.3     1  UNL1        0.0022
     24 C          62.6067   85.6227    8.5901 C.3     1  UNL1        0.0022
     25 C          62.5196   90.6220   11.5410 C.3     1  UNL1        0.0216
     26 C          63.6918   91.2113   10.8139 C.3     1  UNL1        0.0217
     27 C          64.7781   91.9057   11.5806 C.3     1  UNL1        0.0792
     28 N          64.5412   92.3293   12.9999 N.am    1  UNL1       -0.2720
     29 C          64.5711   91.3114   14.1014 C.2     1  UNL1        0.4019
     30 O          64.8380   89.8700   13.7835 O.2     1  UNL1       -0.2264
     31 H          64.3660   93.2754   13.2086 H       1  UNL1        0.1527
     32 O          64.3342   91.7350   15.5207 O.3     1  UNL1       -0.4291
     33 C          65.4293   92.4056   16.2960 C.3     1  UNL1        0.2447
     34 C          66.8052   92.5153   15.7088 C.ar    1  UNL1        0.0714
     35 C          67.6904   93.7253   15.7568 C.ar    1  UNL1        0.1053
     36 N          68.9698   93.3921   15.0481 N.ar    1  UNL1       -0.2350
     37 C          68.8753   91.9762   14.5621 C.ar    1  UNL1        0.1343
     38 S          67.5375   91.4343   14.9704 S.2     1  UNL1       -0.0652
     39 C          66.1013   92.1764   10.9281 C.3     1  UNL1        0.0460
     40 C          66.4098   93.5452   10.3975 C.ar    1  UNL1       -0.0205
     41 C          65.6892   94.7416   10.9446 C.ar    1  UNL1       -0.0042
     42 C          65.9978   96.1102   10.4141 C.ar    1  UNL1       -0.0003
     43 C          67.0269   96.2825    9.3365 C.ar    1  UNL1       -0.0000
     44 C          67.7475   95.0861    8.7894 C.ar    1  UNL1       -0.0003
     45 C          67.4390   93.7174    9.3200 C.ar    1  UNL1       -0.0042
     46 C          60.4220   89.3757   10.6483 C.3     1  UNL1        0.0459
     47 C          60.0026   88.9082    9.2862 C.ar    1  UNL1       -0.0205
     48 C          59.5519   87.4917    9.0852 C.ar    1  UNL1       -0.0042
     49 C          59.1324   87.0241    7.7231 C.ar    1  UNL1       -0.0003
     50 C          59.1636   87.9731    6.5619 C.ar    1  UNL1       -0.0000
     51 C          59.6143   89.3897    6.7628 C.ar    1  UNL1       -0.0003
     52 C          60.0337   89.8572    8.1249 C.ar    1  UNL1       -0.0042
@<TRIPOS>BOND
     1    19    20    1
     2    20    21    1
     3    20    14    1
     4    14    15   ar
     5    15    16   ar
     6    16    13    1
     7    13     7    1
     8     7     8    1
     9     7     9   am
    10     9    10    2
    11     9    11   am
    12     6    11    1
    13     6     2    1
    14     2     3    2
    15     2     4   am
    16     4     1    1
    17     1    25    1
    18    25    26    1
    19    27    26    1
    20    27    39    1
    21    39    40    1
    22    40    41   ar
    23    41    42   ar
    24    42    43   ar
    25    43    44   ar
    26    44    45   ar
    27    27    28    1
    28    28    29   am
    29    29    30    2
    30    29    32    1
    31    32    33    1
    32    33    34    1
    33    34    35   ar
    34    35    36   ar
    35    36    37   ar
    36    37    38   ar
    37     1    46    1
    38    46    47    1
    39    47    48   ar
    40    48    49   ar
    41    49    50   ar
    42    50    51   ar
    43    51    52   ar
    44     6    22    1
    45    22    23    1
    46    22    24    1
    47    16    17   ar
    48    17    18   ar
    49    18    14   ar
    50    45    40   ar
    51    38    34   ar
    52    52    47   ar
    53    11    12    1
    54     4     5    1
    55    28    31    1
@<TRIPOS>MOLECULE
*****
 52 55 0 0 0
SMALL
GASTEIGER

@<TRIPOS>ATOM
      1 C          63.5652   83.9633   10.2140 C.3     1  UNL1        0.0760
      2 C          63.2870   85.2384   12.4606 C.2     1  UNL1        0.2403
      3 O          61.8016   85.0433   12.3873 O.2     1  UNL1       -0.2733
      4 N          64.1688   84.6984   11.3739 N.am    1  UNL1       -0.3043
      5 H          65.1438   84.8264   11.4219 H       1  UNL1        0.1494
      6 C          63.8906   85.9734   13.6204 C.3     1  UNL1        0.1496
      7 N          63.4779   89.6013   15.1755 N.am    1  UNL1       -0.2567
      8 C          63.3637   90.2513   16.5225 C.3     1  UNL1        0.1168
      9 C          63.6272   88.1124   15.0715 C.2     1  UNL1        0.3046
     10 O          63.6624   87.2735   16.3145 O.2     1  UNL1       -0.2526
     11 N          63.7413   87.4624   13.7244 N.am    1  UNL1       -0.2824
     12 H          63.7182   88.0130   12.9086 H       1  UNL1        0.1514
     13 C          63.4427   90.4402   13.9326 C.3     1  UNL1        0.1413
     14 C          66.2557   92.3902   12.1023 C.ar    1  UNL1        0.0875
     15 N          64.8700   91.8172   12.1404 N.ar    1  UNL1       -0.2453
     16 C          64.6824   91.1458   13.4685 C.ar    1  UNL1        0.0858
     17 C          65.9522   91.3038   14.2513 C.ar    1  UNL1        0.0530
     18 S          66.9246   92.0729   13.4069 S.2     1  UNL1       -0.0705
     19 C          66.5091   94.5878   10.7398 C.3     1  UNL1        0.0069
     20 C          66.8655   93.1475   10.9601 C.3     1  UNL1        0.0465
     21 C          67.8318   92.4646   10.0382 C.3     1  UNL1        0.0069
     22 C          64.6436   85.2196   14.6762 C.3     1  UNL1        0.0270
     23 C          66.1129   85.4567   14.8632 C.3     1  UNL1        0.0022
     24 C          63.9272   84.2288   15.5451 C.3     1  UNL1        0.0022
     25 C          63.2758   84.6900    8.9341 C.3     1  UNL1        0.0216
     26 C          61.8573   84.9681    8.5338 C.3     1  UNL1        0.0217
     27 C          61.2274   86.2869    8.8715 C.3     1  UNL1        0.0792
     28 N          60.8671   87.2479    7.7776 N.am    1  UNL1       -0.2720
     29 C          59.4275   87.4726    7.4207 C.2     1  UNL1        0.4019
     30 O          58.3484   86.7362    8.1577 O.2     1  UNL1       -0.2264
     31 H          61.5754   87.7313    7.2939 H       1  UNL1        0.1527
     32 O          59.0672   88.4336    6.3268 O.3     1  UNL1       -0.4291
     33 C          59.0559   89.9088    6.5981 C.3     1  UNL1        0.2447
     34 C          59.2134   90.8807    5.4665 C.ar    1  UNL1        0.0714
     35 C          58.1124   91.6699    4.8224 C.ar    1  UNL1        0.1053
     36 N          58.7181   92.5111    3.7381 N.ar    1  UNL1       -0.2350
     37 C          60.1935   92.2417    3.7120 C.ar    1  UNL1        0.1343
     38 S          60.4996   91.2341    4.7802 S.2     1  UNL1       -0.0652
     39 C          60.9579   86.6447   10.3030 C.3     1  UNL1        0.0460
     40 C          60.8275   88.0841   10.7046 C.ar    1  UNL1       -0.0205
     41 C          59.6107   88.5477   11.4493 C.ar    1  UNL1       -0.0042
     42 C          59.4804   89.9870   11.8508 C.ar    1  UNL1       -0.0003
     43 C          60.5668   90.9627   11.5078 C.ar    1  UNL1       -0.0000
     44 C          61.7836   90.4991   10.7632 C.ar    1  UNL1       -0.0003
     45 C          61.9139   89.0598   10.3616 C.ar    1  UNL1       -0.0042
     46 C          63.2509   82.5015   10.3341 C.3     1  UNL1        0.0459
     47 C          63.1375   81.8676   11.6888 C.ar    1  UNL1       -0.0205
     48 C          64.3730   81.5901   12.4928 C.ar    1  UNL1       -0.0042
     49 C          64.2596   80.9561   13.8475 C.ar    1  UNL1       -0.0003
     50 C          62.9107   80.5997   14.3983 C.ar    1  UNL1       -0.0000
     51 C          61.6751   80.8772   13.5943 C.ar    1  UNL1       -0.0003
     52 C          61.7885   81.5111   12.2395 C.ar    1  UNL1       -0.0042
@<TRIPOS>BOND
     1    19    20    1
     2    20    21    1
     3    20    14    1
     4    14    15   ar
     5    15    16   ar
     6    16    13    1
     7    13     7    1
     8     7     8    1
     9     7     9   am
    10     9    10    2
    11     9    11   am
    12     6    11    1
    13     6     2    1
    14     2     3    2
    15     2     4   am
    16     4     1    1
    17     1    25    1
    18    25    26    1
    19    27    26    1
    20    27    39    1
    21    39    40    1
    22    40    41   ar
    23    41    42   ar
    24    42    43   ar
    25    43    44   ar
    26    44    45   ar
    27    27    28    1
    28    28    29   am
    29    29    30    2
    30    29    32    1
    31    32    33    1
    32    33    34    1
    33    34    35   ar
    34    35    36   ar
    35    36    37   ar
    36    37    38   ar
    37     1    46    1
    38    46    47    1
    39    47    48   ar
    40    48    49   ar
    41    49    50   ar
    42    50    51   ar
    43    51    52   ar
    44     6    22    1
    45    22    23    1
    46    22    24    1
    47    16    17   ar
    48    17    18   ar
    49    18    14   ar
    50    45    40   ar
    51    38    34   ar
    52    52    47   ar
    53    11    12    1
    54     4     5    1
    55    28    31    1
@<TRIPOS>MOLECULE
*****
 52 55 0 0 0
SMALL
GASTEIGER

@<TRIPOS>ATOM
      1 C          61.8811   88.7387   11.1404 C.3     1  UNL1        0.0760
      2 C          63.5269   90.2527   12.4630 C.2     1  UNL1        0.2403
      3 O          63.9323   90.9274   11.1861 O.2     1  UNL1       -0.2733
      4 N          62.5013   89.1583   12.4401 N.am    1  UNL1       -0.3043
      5 H          62.2352   88.7154   13.2782 H       1  UNL1        0.1494
      6 C          64.1471   90.6723   13.7627 C.3     1  UNL1        0.1496
      7 N          67.1103   93.2113   14.4860 N.am    1  UNL1       -0.2567
      8 C          68.4992   93.2014   15.0524 C.3     1  UNL1        0.1168
      9 C          66.3232   91.9369   14.4075 C.2     1  UNL1        0.3046
     10 O          66.9250   90.6524   14.8954 O.2     1  UNL1       -0.2526
     11 N          64.9342   91.9468   13.8412 N.am    1  UNL1       -0.2824
     12 H          64.5392   92.7898   13.5210 H       1  UNL1        0.1514
     13 C          66.5084   94.4957   13.9982 C.3     1  UNL1        0.1413
     14 C          67.0463   94.7597   10.1633 C.ar    1  UNL1        0.0875
     15 N          67.1538   93.9998   11.4521 N.ar    1  UNL1       -0.2453
     16 C          66.5977   94.8620   12.5463 C.ar    1  UNL1        0.0858
     17 C          66.1464   96.1547   11.9338 C.ar    1  UNL1        0.0530
     18 S          66.4236   96.0916   10.4610 S.2     1  UNL1       -0.0705
     19 C          68.2686   93.0002    8.6936 C.3     1  UNL1        0.0069
     20 C          67.4845   94.2732    8.8137 C.3     1  UNL1        0.0465
     21 C          67.1385   95.0598    7.5842 C.3     1  UNL1        0.0069
     22 C          63.9803   89.8174   14.9838 C.3     1  UNL1        0.0270
     23 C          63.4545   90.4181   16.2538 C.3     1  UNL1        0.0022
     24 C          64.3393   88.3618   14.9351 C.3     1  UNL1        0.0022
     25 C          62.3145   87.4637   10.4796 C.3     1  UNL1        0.0216
     26 C          62.0548   86.1465   11.1485 C.3     1  UNL1        0.0217
     27 C          62.6767   84.8941   10.6054 C.3     1  UNL1        0.0792
     28 N          62.5570   83.6066   11.3658 N.am    1  UNL1       -0.2720
     29 C          63.7173   82.6576   11.4210 C.2     1  UNL1        0.4019
     30 O          64.9972   82.9959   10.7159 O.2     1  UNL1       -0.2264
     31 H          61.7169   83.3845   11.8286 H       1  UNL1        0.1527
     32 O          63.5976   81.3701   12.1814 O.3     1  UNL1       -0.4291
     33 C          63.5556   81.3857   13.6807 C.3     1  UNL1        0.2447
     34 C          63.3525   82.6796   14.4119 C.ar    1  UNL1        0.0714
     35 C          62.0387   83.2296   14.8824 C.ar    1  UNL1        0.1053
     36 N          62.3018   84.5406   15.5623 N.ar    1  UNL1       -0.2350
     37 C          63.7782   84.8008   15.5119 C.ar    1  UNL1        0.1343
     38 S          64.4276   83.6506   14.8009 S.2     1  UNL1       -0.0652
     39 C          63.4181   84.9291    9.3019 C.3     1  UNL1        0.0460
     40 C          62.6690   84.7968    8.0091 C.ar    1  UNL1       -0.0205
     41 C          63.4000   84.4237    6.7535 C.ar    1  UNL1       -0.0042
     42 C          62.6508   84.2914    5.4608 C.ar    1  UNL1       -0.0003
     43 C          61.1707   84.5321    5.4236 C.ar    1  UNL1       -0.0000
     44 C          60.4398   84.9052    6.6792 C.ar    1  UNL1       -0.0003
     45 C          61.1889   85.0375    7.9719 C.ar    1  UNL1       -0.0042
     46 C          60.8274   89.5941   10.5015 C.3     1  UNL1        0.0459
     47 C          60.1230   89.1184    9.2656 C.ar    1  UNL1       -0.0205
     48 C          60.1433   89.9559    8.0214 C.ar    1  UNL1       -0.0042
     49 C          59.4388   89.4802    6.7854 C.ar    1  UNL1       -0.0003
     50 C          58.7141   88.1670    6.7937 C.ar    1  UNL1       -0.0000
     51 C          58.6938   87.3293    8.0380 C.ar    1  UNL1       -0.0003
     52 C          59.3982   87.8050    9.2739 C.ar    1  UNL1       -0.0042
@<TRIPOS>BOND
     1    19    20    1
     2    20    21    1
     3    20    14    1
     4    14    15   ar
     5    15    16   ar
     6    16    13    1
     7    13     7    1
     8     7     8    1
     9     7     9   am
    10     9    10    2
    11     9    11   am
    12     6    11    1
    13     6     2    1
    14     2     3    2
    15     2     4   am
    16     4     1    1
    17     1    25    1
    18    25    26    1
    19    27    26    1
    20    27    39    1
    21    39    40    1
    22    40    41   ar
    23    41    42   ar
    24    42    43   ar
    25    43    44   ar
    26    44    45   ar
    27    27    28    1
    28    28    29   am
    29    29    30    2
    30    29    32    1
    31    32    33    1
    32    33    34    1
    33    34    35   ar
    34    35    36   ar
    35    36    37   ar
    36    37    38   ar
    37     1    46    1
    38    46    47    1
    39    47    48   ar
    40    48    49   ar
    41    49    50   ar
    42    50    51   ar
    43    51    52   ar
    44     6    22    1
    45    22    23    1
    46    22    24    1
    47    16    17   ar
    48    17    18   ar
    49    18    14   ar
    50    45    40   ar
    51    38    34   ar
    52    52    47   ar
    53    11    12    1
    54     4     5    1
    55    28    31    1
@<TRIPOS>MOLECULE
*****
 52 55 0 0 0
SMALL
GASTEIGER

@<TRIPOS>ATOM
      1 C          63.2493   84.9553   11.8412 C.3     1  UNL1        0.0760
      2 C          64.1018   85.8805   14.1144 C.2     1  UNL1        0.2403
      3 O          65.2251   84.8866   14.0977 O.2     1  UNL1       -0.2733
      4 N          63.1139   85.9149   12.9861 N.am    1  UNL1       -0.3043
      5 H          62.3767   86.5673   12.9970 H       1  UNL1        0.1494
      6 C          63.9664   86.8401   15.2593 C.3     1  UNL1        0.1496
      7 N          64.4698   90.7685   15.5131 N.am    1  UNL1       -0.2567
      8 C          63.6962   91.9867   15.9223 C.3     1  UNL1        0.1168
      9 C          63.8314   89.4135   15.5908 C.2     1  UNL1        0.3046
     10 O          62.4191   89.2766   16.0776 O.2     1  UNL1       -0.2526
     11 N          64.6050   88.1953   15.1816 N.am    1  UNL1       -0.2824
     12 H          65.5319   88.2851   14.8621 H       1  UNL1        0.1514
     13 C          65.8820   90.9054   15.0263 C.3     1  UNL1        0.1413
     14 C          66.9079   92.8663   11.8376 C.ar    1  UNL1        0.0875
     15 N          66.7103   91.5749   12.5746 N.ar    1  UNL1       -0.2453
     16 C          66.2120   91.8987   13.9518 C.ar    1  UNL1        0.0858
     17 C          66.1017   93.3903   14.0660 C.ar    1  UNL1        0.0530
     18 S          66.5317   93.9883   12.7593 S.2     1  UNL1       -0.0705
     19 C          68.1411   91.8851    9.7720 C.3     1  UNL1        0.0069
     20 C          67.3960   93.0104   10.4265 C.3     1  UNL1        0.0465
     21 C          67.1389   94.2799    9.6700 C.3     1  UNL1        0.0069
     22 C          63.1925   86.4447   16.4818 C.3     1  UNL1        0.0270
     23 C          62.4268   85.1550   16.5001 C.3     1  UNL1        0.0022
     24 C          63.1843   87.3389   17.6860 C.3     1  UNL1        0.0022
     25 C          62.6907   85.3101   10.4951 C.3     1  UNL1        0.0216
     26 C          61.2277   85.6050   10.3443 C.3     1  UNL1        0.0217
     27 C          60.7383   87.0218   10.4020 C.3     1  UNL1        0.0792
     28 N          59.8422   87.5503    9.3215 N.am    1  UNL1       -0.2720
     29 C          60.0739   87.1528    7.8937 C.2     1  UNL1        0.4019
     30 O          61.2018   86.2269    7.5466 O.2     1  UNL1       -0.2264
     31 H          59.1019   88.1580    9.5493 H       1  UNL1        0.1527
     32 O          59.1778   87.6813    6.8132 O.3     1  UNL1       -0.4291
     33 C          58.5581   89.0404    6.9506 C.3     1  UNL1        0.2447
     34 C          58.9118   90.1276    5.9797 C.ar    1  UNL1        0.0714
     35 C          60.2905   90.4578    5.4895 C.ar    1  UNL1        0.1053
     36 N          60.1797   91.6099    4.5353 N.ar    1  UNL1       -0.2350
     37 C          58.7326   91.9917    4.4357 C.ar    1  UNL1        0.1343
     38 S          57.9490   91.0756    5.3284 S.2     1  UNL1       -0.0652
     39 C          61.1450   87.9100   11.5403 C.3     1  UNL1        0.0460
     40 C          61.9685   89.1360   11.2777 C.ar    1  UNL1       -0.0205
     41 C          61.9864   89.7484    9.9085 C.ar    1  UNL1       -0.0042
     42 C          62.8098   90.9744    9.6460 C.ar    1  UNL1       -0.0003
     43 C          63.6152   91.5880   10.7527 C.ar    1  UNL1       -0.0000
     44 C          63.5972   90.9757   12.1219 C.ar    1  UNL1       -0.0003
     45 C          62.7739   89.7497   12.3844 C.ar    1  UNL1       -0.0042
     46 C          63.9434   83.6408   12.0424 C.3     1  UNL1        0.0459
     47 C          63.1804   82.4632   12.5725 C.ar    1  UNL1       -0.0205
     48 C          63.2205   81.1534   11.8427 C.ar    1  UNL1       -0.0042
     49 C          62.4574   79.9758   12.3727 C.ar    1  UNL1       -0.0003
     50 C          61.6542   80.1080   13.6326 C.ar    1  UNL1       -0.0000
     51 C          61.6141   81.4179   14.3625 C.ar    1  UNL1       -0.0003
     52 C          62.3772   82.5955   13.8325 C.ar    1  UNL1       -0.0042
@<TRIPOS>BOND
     1    19    20    1
     2    20    21    1
     3    20    14    1
     4    14    15   ar
     5    15    16   ar
     6    16    13    1
     7    13     7    1
     8     7     8    1
     9     7     9   am
    10     9    10    2
    11     9    11   am
    12     6    11    1
    13     6     2    1
    14     2     3    2
    15     2     4   am
    16     4     1    1
    17     1    25    1
    18    25    26    1
    19    27    26    1
    20    27    39    1
    21    39    40    1
    22    40    41   ar
    23    41    42   ar
    24    42    43   ar
    25    43    44   ar
    26    44    45   ar
    27    27    28    1
    28    28    29   am
    29    29    30    2
    30    29    32    1
    31    32    33    1
    32    33    34    1
    33    34    35   ar
    34    35    36   ar
    35    36    37   ar
    36    37    38   ar
    37     1    46    1
    38    46    47    1
    39    47    48   ar
    40    48    49   ar
    41    49    50   ar
    42    50    51   ar
    43    51    52   ar
    44     6    22    1
    45    22    23    1
    46    22    24    1
    47    16    17   ar
    48    17    18   ar
    49    18    14   ar
    50    45    40   ar
    51    38    34   ar
    52    52    47   ar
    53    11    12    1
    54     4     5    1
    55    28    31    1
