@<TRIPOS>MOLECULE
*****
 35 39 0 0 0
SMALL
GASTEIGER

@<TRIPOS>ATOM
      1 C          62.6535   86.8149   11.8133 C.2     1  UNL1        0.2506
      2 O          63.4066   87.4925   12.9195 O.2     1  UNL1       -0.2699
      3 N          61.6363   87.5804   11.0200 N.am    1  UNL1       -0.2724
      4 C          60.8832   86.9028    9.9137 C.3     1  UNL1        0.1231
      5 C          59.8660   87.6683    9.1204 C.3     1  UNL1        0.1351
      6 C          59.1129   86.9907    8.0141 C.3     1  UNL1        0.0339
      7 O          59.6019   89.1113    9.4333 O.3     1  UNL1       -0.3527
      8 C          60.3550   89.7889   10.5395 C.3     1  UNL1        0.1621
      9 C          61.3722   89.0234   11.3329 C.3     1  UNL1        0.1097
     10 C          63.7100   81.0428   10.5617 C.3     1  UNL1        0.0311
     11 C          63.4459   82.4858   10.8746 C.ar    1  UNL1       -0.0203
     12 C          63.2404   83.4694    9.7608 C.ar    1  UNL1       -0.0040
     13 C          62.9763   84.9124   10.0737 C.ar    1  UNL1        0.0058
     14 C          62.9176   85.3719   11.5004 C.ar    1  UNL1        0.0729
     15 C          63.1230   84.3884   12.6141 C.ar    1  UNL1        0.1069
     16 C          63.3872   82.9454   12.3012 C.ar    1  UNL1        0.0168
     17 N          63.0643   84.8479   14.0409 N.ar    1  UNL1       -0.1477
     18 N          61.8741   84.7543   14.9490 N.ar    1  UNL1       -0.1447
     19 C          62.2597   85.3302   16.2793 C.ar    1  UNL1        0.1446
     20 C          63.6882   85.7797   16.1933 C.ar    1  UNL1        0.1446
     21 N          64.1855   85.4816   14.8099 N.ar    1  UNL1       -0.1447
     22 C          62.1253   89.7010   12.4391 C.3     1  UNL1        0.0510
     23 C          63.2757   90.6081   12.1173 C.ar    1  UNL1        0.0071
     24 C          64.2766   90.9556   13.1791 C.ar    1  UNL1        0.0011
     25 C          65.4271   91.8627   12.8572 C.ar    1  UNL1        0.0356
     26 C          65.5767   92.4223   11.4736 C.ar    1  UNL1        0.0053
     27 C          64.5759   92.0747   10.4118 C.ar    1  UNL1        0.0294
     28 C          63.4254   91.1676   10.7336 C.ar    1  UNL1        0.1362
     29 F          62.4245   90.8201    9.6717 F       1  UNL1       -0.2045
     30 C          66.4279   92.2103   13.9192 C.ar    1  UNL1        0.1622
     31 N          67.8907   92.2439   13.5889 N.ar    1  UNL1       -0.2250
     32 C          68.8916   92.5915   14.6508 C.ar    1  UNL1        0.1022
     33 C          68.4296   92.9053   16.0429 C.ar    1  UNL1        0.0414
     34 C          66.9667   92.8717   16.3732 C.ar    1  UNL1        0.1022
     35 N          65.9659   92.5241   15.3113 N.ar    1  UNL1       -0.2250
@<TRIPOS>BOND
     1    10    11    1
     2    11    12   ar
     3    12    13   ar
     4    13    14   ar
     5    14     1    1
     6     1     2    2
     7     1     3   am
     8     3     4    1
     9     4     5    1
    10     5     6    1
    11     5     7    1
    12     7     8    1
    13     8     9    1
    14     9    22    1
    15    22    23    1
    16    23    24   ar
    17    24    25   ar
    18    25    30    1
    19    30    31   ar
    20    31    32   ar
    21    32    33   ar
    22    33    34   ar
    23    34    35   ar
    24    25    26   ar
    25    26    27   ar
    26    27    28   ar
    27    28    29    1
    28    14    15   ar
    29    15    17    1
    30    17    18   ar
    31    18    19   ar
    32    19    20   ar
    33    20    21   ar
    34    15    16   ar
    35    16    11   ar
    36     9     3    1
    37    28    23   ar
    38    21    17   ar
    39    35    30   ar
@<TRIPOS>MOLECULE
*****
 35 39 0 0 0
SMALL
GASTEIGER

@<TRIPOS>ATOM
      1 C          62.9713   87.1841   12.3120 C.2     1  UNL1        0.2506
      2 O          63.5966   87.5864   13.6148 O.2     1  UNL1       -0.2699
      3 N          62.2461   88.2018   11.4824 N.am    1  UNL1       -0.2724
      4 C          61.6207   87.7996   10.1796 C.3     1  UNL1        0.1231
      5 C          60.8955   88.8173    9.3500 C.3     1  UNL1        0.1351
      6 C          60.2701   88.4151    8.0472 C.3     1  UNL1        0.0339
      7 O          60.7956   90.2372    9.8231 O.3     1  UNL1       -0.3527
      8 C          61.4209   90.6395   11.1258 C.3     1  UNL1        0.1621
      9 C          62.1462   89.6218   11.9555 C.3     1  UNL1        0.1097
     10 C          63.3709   81.5044   10.4196 C.3     1  UNL1        0.0311
     11 C          63.2710   82.9244   10.8927 C.ar    1  UNL1       -0.0203
     12 C          63.1928   84.0431    9.8965 C.ar    1  UNL1       -0.0040
     13 C          63.0929   85.4630   10.3697 C.ar    1  UNL1        0.0058
     14 C          63.0712   85.7642   11.8389 C.ar    1  UNL1        0.0729
     15 C          63.1494   84.6455   12.8350 C.ar    1  UNL1        0.1069
     16 C          63.2493   83.2256   12.3619 C.ar    1  UNL1        0.0168
     17 N          63.1277   84.9467   14.3044 N.ar    1  UNL1       -0.1477
     18 N          64.3001   85.3824   15.1325 N.ar    1  UNL1       -0.1447
     19 C          63.8269   85.5700   16.5434 C.ar    1  UNL1        0.1446
     20 C          62.3620   85.2503   16.5874 C.ar    1  UNL1        0.1446
     21 N          61.9299   84.8651   15.2036 N.ar    1  UNL1       -0.1447
     22 C          62.7715   90.0240   13.2582 C.3     1  UNL1        0.0510
     23 C          64.1044   90.7118   13.2696 C.ar    1  UNL1        0.0071
     24 C          64.5086   91.5833   12.1176 C.ar    1  UNL1        0.0011
     25 C          65.8415   92.2711   12.1290 C.ar    1  UNL1        0.0356
     26 C          66.7703   92.0876   13.2924 C.ar    1  UNL1        0.0053
     27 C          66.3662   91.2161   14.4444 C.ar    1  UNL1        0.0294
     28 C          65.0332   90.5283   14.4330 C.ar    1  UNL1        0.1362
     29 F          64.6291   89.6568   15.5852 F       1  UNL1       -0.2045
     30 C          66.2456   93.1426   10.9769 C.ar    1  UNL1        0.1622
     31 N          67.3151   92.6855   10.0298 N.ar    1  UNL1       -0.2250
     32 C          67.7193   93.5570    8.8776 C.ar    1  UNL1        0.1022
     33 C          67.0538   94.8856    8.6727 C.ar    1  UNL1        0.0414
     34 C          65.9842   95.3427    9.6199 C.ar    1  UNL1        0.1022
     35 N          65.5801   94.4712   10.7719 N.ar    1  UNL1       -0.2250
@<TRIPOS>BOND
     1    10    11    1
     2    11    12   ar
     3    12    13   ar
     4    13    14   ar
     5    14     1    1
     6     1     2    2
     7     1     3   am
     8     3     4    1
     9     4     5    1
    10     5     6    1
    11     5     7    1
    12     7     8    1
    13     8     9    1
    14     9    22    1
    15    22    23    1
    16    23    24   ar
    17    24    25   ar
    18    25    30    1
    19    30    31   ar
    20    31    32   ar
    21    32    33   ar
    22    33    34   ar
    23    34    35   ar
    24    25    26   ar
    25    26    27   ar
    26    27    28   ar
    27    28    29    1
    28    14    15   ar
    29    15    17    1
    30    17    18   ar
    31    18    19   ar
    32    19    20   ar
    33    20    21   ar
    34    15    16   ar
    35    16    11   ar
    36     9     3    1
    37    28    23   ar
    38    21    17   ar
    39    35    30   ar
@<TRIPOS>MOLECULE
*****
 35 39 0 0 0
SMALL
GASTEIGER

@<TRIPOS>ATOM
      1 C          62.6284   88.7183   11.7060 C.2     1  UNL1        0.2506
      2 O          62.4556   90.2083   11.7042 O.2     1  UNL1       -0.2699
      3 N          63.3482   88.0482   12.8386 N.am    1  UNL1       -0.2724
      4 C          63.5210   86.5582   12.8405 C.3     1  UNL1        0.1231
      5 C          64.2409   85.8881   13.9731 C.3     1  UNL1        0.1351
      6 C          64.4137   84.3980   13.9750 C.3     1  UNL1        0.0339
      7 O          64.7879   86.7080   15.1039 O.3     1  UNL1       -0.3527
      8 C          64.6151   88.1979   15.1020 C.3     1  UNL1        0.1621
      9 C          63.8953   88.8681   13.9694 C.3     1  UNL1        0.1097
     10 C          60.4403   85.4388    7.1831 C.3     1  UNL1        0.0311
     11 C          60.9874   86.2587    8.3139 C.ar    1  UNL1       -0.0203
     12 C          62.4279   86.1240    8.7095 C.ar    1  UNL1       -0.0040
     13 C          62.9749   86.9439    9.8402 C.ar    1  UNL1        0.0058
     14 C          62.0814   87.8984   10.5753 C.ar    1  UNL1        0.0729
     15 C          60.6408   88.0331   10.1797 C.ar    1  UNL1        0.1069
     16 C          60.0938   87.2132    9.0489 C.ar    1  UNL1        0.0168
     17 N          59.7472   88.9877   10.9147 N.ar    1  UNL1       -0.1477
     18 N          58.9269   88.6697   12.1296 N.ar    1  UNL1       -0.1447
     19 C          58.1897   89.9133   12.5297 C.ar    1  UNL1        0.1446
     20 C          58.5545   90.9999   11.5621 C.ar    1  UNL1        0.1446
     21 N          59.5170   90.4278   10.5640 N.ar    1  UNL1       -0.1447
     22 C          63.7225   90.3581   13.9675 C.3     1  UNL1        0.0510
     23 C          64.9257   91.2526   13.9223 C.ar    1  UNL1        0.0071
     24 C          65.5012   91.6694   12.6014 C.ar    1  UNL1        0.0011
     25 C          66.7045   92.5640   12.5562 C.ar    1  UNL1        0.0356
     26 C          67.3322   93.0417   13.8320 C.ar    1  UNL1        0.0053
     27 C          66.7567   92.6248   15.1530 C.ar    1  UNL1        0.0294
     28 C          65.5535   91.7303   15.1981 C.ar    1  UNL1        0.1362
     29 F          64.9780   91.3135   16.5192 F       1  UNL1       -0.2045
     30 C          67.2800   92.9808   11.2351 C.ar    1  UNL1        0.1622
     31 N          66.9467   94.3267   10.6630 N.ar    1  UNL1       -0.2250
     32 C          67.5222   94.7435    9.3419 C.ar    1  UNL1        0.1022
     33 C          68.4310   93.8144    8.5931 C.ar    1  UNL1        0.0414
     34 C          68.7643   92.4684    9.1653 C.ar    1  UNL1        0.1022
     35 N          68.1888   92.0516   10.4863 N.ar    1  UNL1       -0.2250
@<TRIPOS>BOND
     1    10    11    1
     2    11    12   ar
     3    12    13   ar
     4    13    14   ar
     5    14     1    1
     6     1     2    2
     7     1     3   am
     8     3     4    1
     9     4     5    1
    10     5     6    1
    11     5     7    1
    12     7     8    1
    13     8     9    1
    14     9    22    1
    15    22    23    1
    16    23    24   ar
    17    24    25   ar
    18    25    30    1
    19    30    31   ar
    20    31    32   ar
    21    32    33   ar
    22    33    34   ar
    23    34    35   ar
    24    25    26   ar
    25    26    27   ar
    26    27    28   ar
    27    28    29    1
    28    14    15   ar
    29    15    17    1
    30    17    18   ar
    31    18    19   ar
    32    19    20   ar
    33    20    21   ar
    34    15    16   ar
    35    16    11   ar
    36     9     3    1
    37    28    23   ar
    38    21    17   ar
    39    35    30   ar
@<TRIPOS>MOLECULE
*****
 35 39 0 0 0
SMALL
GASTEIGER

@<TRIPOS>ATOM
      1 C          63.4815   87.7483   13.3171 C.2     1  UNL1        0.2506
      2 O          63.6198   88.8153   12.2719 O.2     1  UNL1       -0.2699
      3 N          63.3565   88.1267   14.7631 N.am    1  UNL1       -0.2724
      4 C          63.2182   87.0597   15.8084 C.3     1  UNL1        0.1231
      5 C          63.0932   87.4382   17.2544 C.3     1  UNL1        0.1351
      6 C          62.9548   86.3712   18.2997 C.3     1  UNL1        0.0339
      7 O          63.1066   88.8835   17.6553 O.3     1  UNL1       -0.3527
      8 C          63.2449   89.9505   16.6102 C.3     1  UNL1        0.1621
      9 C          63.3699   89.5721   15.1640 C.3     1  UNL1        0.1097
     10 C          63.4280   81.9668   11.7135 C.3     1  UNL1        0.0311
     11 C          63.4413   83.4122   12.1144 C.ar    1  UNL1       -0.0203
     12 C          64.2926   83.8638   13.2639 C.ar    1  UNL1       -0.0040
     13 C          64.3059   85.3092   13.6648 C.ar    1  UNL1        0.0058
     14 C          63.4681   86.3029   12.9162 C.ar    1  UNL1        0.0729
     15 C          62.6169   85.8513   11.7667 C.ar    1  UNL1        0.1069
     16 C          62.6035   84.4059   11.3658 C.ar    1  UNL1        0.0168
     17 N          61.7790   86.8451   11.0180 N.ar    1  UNL1       -0.1477
     18 N          60.5267   87.4994   11.5216 N.ar    1  UNL1       -0.1447
     19 C          60.0200   88.4177   10.4492 C.ar    1  UNL1        0.1446
     20 C          60.9592   88.3308    9.2828 C.ar    1  UNL1        0.1446
     21 N          62.0463   87.3589    9.6343 N.ar    1  UNL1       -0.1447
     22 C          63.5083   90.6391   14.1189 C.3     1  UNL1        0.0510
     23 C          64.7486   91.4810   14.0661 C.ar    1  UNL1        0.0071
     24 C          65.3553   91.8405   12.7423 C.ar    1  UNL1        0.0011
     25 C          66.5956   92.6824   12.6896 C.ar    1  UNL1        0.0356
     26 C          67.2292   93.1648   13.9607 C.ar    1  UNL1        0.0053
     27 C          66.6225   92.8053   15.2845 C.ar    1  UNL1        0.0294
     28 C          65.3822   91.9634   15.3372 C.ar    1  UNL1        0.1362
     29 F          64.7755   91.6039   16.6612 F       1  UNL1       -0.2045
     30 C          67.2023   93.0419   11.3656 C.ar    1  UNL1        0.1622
     31 N          68.1066   92.0706   10.6665 N.ar    1  UNL1       -0.2250
     32 C          68.7133   92.4301    9.3426 C.ar    1  UNL1        0.1022
     33 C          68.4157   93.7609    8.7178 C.ar    1  UNL1        0.0414
     34 C          67.5113   94.7322    9.4170 C.ar    1  UNL1        0.1022
     35 N          66.9047   94.3727   10.7408 N.ar    1  UNL1       -0.2250
@<TRIPOS>BOND
     1    10    11    1
     2    11    12   ar
     3    12    13   ar
     4    13    14   ar
     5    14     1    1
     6     1     2    2
     7     1     3   am
     8     3     4    1
     9     4     5    1
    10     5     6    1
    11     5     7    1
    12     7     8    1
    13     8     9    1
    14     9    22    1
    15    22    23    1
    16    23    24   ar
    17    24    25   ar
    18    25    30    1
    19    30    31   ar
    20    31    32   ar
    21    32    33   ar
    22    33    34   ar
    23    34    35   ar
    24    25    26   ar
    25    26    27   ar
    26    27    28   ar
    27    28    29    1
    28    14    15   ar
    29    15    17    1
    30    17    18   ar
    31    18    19   ar
    32    19    20   ar
    33    20    21   ar
    34    15    16   ar
    35    16    11   ar
    36     9     3    1
    37    28    23   ar
    38    21    17   ar
    39    35    30   ar
@<TRIPOS>MOLECULE
*****
 35 39 0 0 0
SMALL
GASTEIGER

@<TRIPOS>ATOM
      1 C          62.8301   86.0128   12.6087 C.2     1  UNL1        0.2506
      2 O          63.1809   86.9065   13.7613 O.2     1  UNL1       -0.2699
      3 N          62.3761   86.6084   11.3091 N.am    1  UNL1       -0.2724
      4 C          62.0253   85.7148   10.1565 C.3     1  UNL1        0.1231
      5 C          61.5713   86.3103    8.8569 C.3     1  UNL1        0.1351
      6 C          61.2205   85.4167    7.7042 C.3     1  UNL1        0.0339
      7 O          61.4680   87.7995    8.7097 O.3     1  UNL1       -0.3527
      8 C          61.8187   88.6931    9.8623 C.3     1  UNL1        0.1621
      9 C          62.2728   88.0976   11.1620 C.3     1  UNL1        0.1097
     10 C          63.2433   80.0561   13.1972 C.3     1  UNL1        0.0311
     11 C          63.1400   81.5453   13.0501 C.ar    1  UNL1       -0.0203
     12 C          63.1286   82.1650   11.6842 C.ar    1  UNL1       -0.0040
     13 C          63.0253   83.6542   11.5371 C.ar    1  UNL1        0.0058
     14 C          62.9334   84.5236   12.7559 C.ar    1  UNL1        0.0729
     15 C          62.9448   83.9039   14.1218 C.ar    1  UNL1        0.1069
     16 C          63.0481   82.4147   14.2689 C.ar    1  UNL1        0.0168
     17 N          62.8529   84.7734   15.3407 N.ar    1  UNL1       -0.1477
     18 N          64.0077   85.3899   16.0731 N.ar    1  UNL1       -0.1447
     19 C          63.4586   86.1765   17.2262 C.ar    1  UNL1        0.1446
     20 C          61.9644   86.0462   17.2064 C.ar    1  UNL1        0.1446
     21 N          61.5900   85.1791   16.0411 N.ar    1  UNL1       -0.1447
     22 C          62.6235   88.9912   12.3145 C.3     1  UNL1        0.0510
     23 C          63.5066   90.1841   12.0970 C.ar    1  UNL1        0.0071
     24 C          64.5895   90.5054   13.0838 C.ar    1  UNL1        0.0011
     25 C          65.4726   91.6983   12.8663 C.ar    1  UNL1        0.0356
     26 C          65.2727   92.5697   11.6620 C.ar    1  UNL1        0.0053
     27 C          64.1898   92.2484   10.6751 C.ar    1  UNL1        0.0294
     28 C          63.3067   91.0555   10.8927 C.ar    1  UNL1        0.1362
     29 F          62.2237   90.7342    9.9057 F       1  UNL1       -0.2045
     30 C          66.5556   92.0196   13.8533 C.ar    1  UNL1        0.1622
     31 N          66.1992   92.5256   15.2196 N.ar    1  UNL1       -0.2250
     32 C          67.2822   92.8469   16.2065 C.ar    1  UNL1        0.1022
     33 C          68.7216   92.6622   15.8270 C.ar    1  UNL1        0.0414
     34 C          69.0780   92.1562   14.4606 C.ar    1  UNL1        0.1022
     35 N          67.9950   91.8349   13.4738 N.ar    1  UNL1       -0.2250
@<TRIPOS>BOND
     1    10    11    1
     2    11    12   ar
     3    12    13   ar
     4    13    14   ar
     5    14     1    1
     6     1     2    2
     7     1     3   am
     8     3     4    1
     9     4     5    1
    10     5     6    1
    11     5     7    1
    12     7     8    1
    13     8     9    1
    14     9    22    1
    15    22    23    1
    16    23    24   ar
    17    24    25   ar
    18    25    30    1
    19    30    31   ar
    20    31    32   ar
    21    32    33   ar
    22    33    34   ar
    23    34    35   ar
    24    25    26   ar
    25    26    27   ar
    26    27    28   ar
    27    28    29    1
    28    14    15   ar
    29    15    17    1
    30    17    18   ar
    31    18    19   ar
    32    19    20   ar
    33    20    21   ar
    34    15    16   ar
    35    16    11   ar
    36     9     3    1
    37    28    23   ar
    38    21    17   ar
    39    35    30   ar
