@<TRIPOS>MOLECULE
*****
 17 19 0 0 0
SMALL
GASTEIGER

@<TRIPOS>ATOM
      1 C          63.7394   83.5573   12.6751 C.ar    1  UNL1        0.0923
      2 C          64.5500   82.5701   11.8888 C.ar    1  UNL1        0.0055
      3 C          64.5284   82.6071   10.3894 C.ar    1  UNL1        0.0016
      4 C          63.6962   83.6312    9.6763 C.ar    1  UNL1        0.0204
      5 C          62.8856   84.6184   10.4626 C.ar    1  UNL1        0.0987
      6 C          62.9072   84.5814   11.9620 C.ar    1  UNL1        0.1256
      7 N          62.0117   85.6745   12.4655 N.ar    1  UNL1       -0.1288
      8 N          61.4367   86.3869   11.2773 N.ar    1  UNL1       -0.0639
      9 N          61.9768   85.7342   10.0395 N.ar    1  UNL1       -0.2318
     10 F          63.7825   83.4834   15.6738 F       1  UNL1       -0.1658
     11 C          63.7609   83.5204   14.1745 C.3     1  UNL1        0.4201
     12 F          65.1314   84.1302   14.1698 F       1  UNL1       -0.1658
     13 F          62.3905   82.9106   14.1791 F       1  UNL1       -0.1658
     14 C          61.6632   86.1282    8.6265 C.3     1  UNL1        0.1291
     15 C          60.3907   86.8596    8.3166 C.3     1  UNL1        0.0245
     16 C          58.9468   86.8397    7.9105 C.3     1  UNL1        0.0021
     17 C          59.6305   88.1461    8.1860 C.3     1  UNL1        0.0021
@<TRIPOS>BOND
     1    10    11    1
     2    11    12    1
     3    11    13    1
     4    11     1    1
     5     1     2   ar
     6     2     3   ar
     7     3     4   ar
     8     4     5   ar
     9     5     6   ar
    10     6     7   ar
    11     7     8   ar
    12     8     9   ar
    13     9    14    1
    14    14    15    1
    15    15    16    1
    16    16    17    1
    17     6     1   ar
    18    17    15    1
    19     9     5   ar
@<TRIPOS>MOLECULE
*****
 17 19 0 0 0
SMALL
GASTEIGER

@<TRIPOS>ATOM
      1 C          62.0666   86.4010    9.6109 C.ar    1  UNL1        0.0923
      2 C          62.6043   85.7650    8.3634 C.ar    1  UNL1        0.0055
      3 C          63.3155   84.4465    8.4403 C.ar    1  UNL1        0.0016
      4 C          63.4890   83.7641    9.7647 C.ar    1  UNL1        0.0204
      5 C          62.9513   84.4001   11.0122 C.ar    1  UNL1        0.0987
      6 C          62.2402   85.7185   10.9353 C.ar    1  UNL1        0.1256
      7 N          61.8205   86.1004   12.3239 N.ar    1  UNL1       -0.1288
      8 N          62.2722   85.0181   13.2589 N.ar    1  UNL1       -0.0639
      9 N          62.9712   83.9672   12.4483 N.ar    1  UNL1       -0.2318
     10 F          60.6443   89.0379    9.4571 F       1  UNL1       -0.1658
     11 C          61.3555   87.7194    9.5340 C.3     1  UNL1        0.4201
     12 F          60.0514   87.0046    9.3382 F       1  UNL1       -0.1658
     13 F          62.6596   88.4343    9.7299 F       1  UNL1       -0.1658
     14 C          63.5826   82.7050   12.9803 C.3     1  UNL1        0.1291
     15 C          62.7059   81.5466   13.3542 C.3     1  UNL1        0.0245
     16 C          62.4157   80.0752   13.3271 C.3     1  UNL1        0.0021
     17 C          61.4776   81.0118   14.0291 C.3     1  UNL1        0.0021
@<TRIPOS>BOND
     1    10    11    1
     2    11    12    1
     3    11    13    1
     4    11     1    1
     5     1     2   ar
     6     2     3   ar
     7     3     4   ar
     8     4     5   ar
     9     5     6   ar
    10     6     7   ar
    11     7     8   ar
    12     8     9   ar
    13     9    14    1
    14    14    15    1
    15    15    16    1
    16    16    17    1
    17     6     1   ar
    18    17    15    1
    19     9     5   ar
@<TRIPOS>MOLECULE
*****
 17 19 0 0 0
SMALL
GASTEIGER

@<TRIPOS>ATOM
      1 C          64.0173   90.4328   13.3183 C.ar    1  UNL1        0.0923
      2 C          63.2548   89.9937   12.1036 C.ar    1  UNL1        0.0055
      3 C          63.3725   90.7673   10.8239 C.ar    1  UNL1        0.0016
      4 C          64.2528   91.9800   10.7589 C.ar    1  UNL1        0.0204
      5 C          65.0153   92.4192   11.9736 C.ar    1  UNL1        0.0987
      6 C          64.8976   91.6456   13.2533 C.ar    1  UNL1        0.1256
      7 N          65.7633   92.3136   14.2801 N.ar    1  UNL1       -0.1288
      8 N          66.4161   93.5001   13.6351 N.ar    1  UNL1       -0.0639
      9 N          65.9538   93.5653   12.2096 N.ar    1  UNL1       -0.2318
     10 F          63.7818   88.8856   15.8777 F       1  UNL1       -0.1658
     11 C          63.8996   89.6592   14.5980 C.3     1  UNL1        0.4201
     12 F          63.3608   90.8786   15.2856 F       1  UNL1       -0.1658
     13 F          64.4383   88.4398   13.9104 F       1  UNL1       -0.1658
     14 C          66.3589   94.5958   11.1976 C.3     1  UNL1        0.1291
     15 C          67.1380   94.1879    9.9824 C.3     1  UNL1        0.0245
     16 C          67.5799   94.4521    8.5735 C.3     1  UNL1        0.0021
     17 C          68.0455   93.2172    9.2865 C.3     1  UNL1        0.0021
@<TRIPOS>BOND
     1    10    11    1
     2    11    12    1
     3    11    13    1
     4    11     1    1
     5     1     2   ar
     6     2     3   ar
     7     3     4   ar
     8     4     5   ar
     9     5     6   ar
    10     6     7   ar
    11     7     8   ar
    12     8     9   ar
    13     9    14    1
    14    14    15    1
    15    15    16    1
    16    16    17    1
    17     6     1   ar
    18    17    15    1
    19     9     5   ar
@<TRIPOS>MOLECULE
*****
 17 19 0 0 0
SMALL
GASTEIGER

@<TRIPOS>ATOM
      1 C          62.2181   88.2698   10.7337 C.ar    1  UNL1        0.0923
      2 C          61.9458   89.5216    9.9534 C.ar    1  UNL1        0.0055
      3 C          62.4232   90.8463   10.4703 C.ar    1  UNL1        0.0016
      4 C          63.1728   90.9193   11.7675 C.ar    1  UNL1        0.0204
      5 C          63.4451   89.6675   12.5477 C.ar    1  UNL1        0.0987
      6 C          62.9678   88.3428   12.0308 C.ar    1  UNL1        0.1256
      7 N          63.3814   87.2861   13.0118 N.ar    1  UNL1       -0.1288
      8 N          64.1144   87.9578   14.1350 N.ar    1  UNL1       -0.0639
      9 N          64.1538   89.4296   13.8482 N.ar    1  UNL1       -0.2318
     10 F          61.2634   85.6203    9.6999 F       1  UNL1       -0.1658
     11 C          61.7408   86.9451   10.2168 C.3     1  UNL1        0.4201
     12 F          62.7410   87.0199    9.1014 F       1  UNL1       -0.1658
     13 F          60.7406   86.8703   11.3321 F       1  UNL1       -0.1658
     14 C          64.7901   90.4792   14.7104 C.3     1  UNL1        0.1291
     15 C          65.9469   91.2787   14.1882 C.3     1  UNL1        0.0245
     16 C          67.3571   91.7692   14.3317 C.3     1  UNL1        0.0021
     17 C          66.5402   92.1730   13.1403 C.3     1  UNL1        0.0021
@<TRIPOS>BOND
     1    10    11    1
     2    11    12    1
     3    11    13    1
     4    11     1    1
     5     1     2   ar
     6     2     3   ar
     7     3     4   ar
     8     4     5   ar
     9     5     6   ar
    10     6     7   ar
    11     7     8   ar
    12     8     9   ar
    13     9    14    1
    14    14    15    1
    15    15    16    1
    16    16    17    1
    17     6     1   ar
    18    17    15    1
    19     9     5   ar
@<TRIPOS>MOLECULE
*****
 17 19 0 0 0
SMALL
GASTEIGER

@<TRIPOS>ATOM
      1 C          63.1073   83.2530   11.5092 C.ar    1  UNL1        0.0923
      2 C          62.6583   81.8387   11.7283 C.ar    1  UNL1        0.0055
      3 C          62.2761   81.3777   13.1036 C.ar    1  UNL1        0.0016
      4 C          62.3430   82.3309   14.2597 C.ar    1  UNL1        0.0204
      5 C          62.7920   83.7452   14.0407 C.ar    1  UNL1        0.0987
      6 C          63.1742   84.2063   12.6654 C.ar    1  UNL1        0.1256
      7 N          63.5756   85.6488   12.7550 N.ar    1  UNL1       -0.1288
      8 N          63.4415   86.0793   14.1856 N.ar    1  UNL1       -0.0639
      9 N          62.9572   84.9028   14.9802 N.ar    1  UNL1       -0.2318
     10 F          63.8717   84.1751    8.7587 F       1  UNL1       -0.1658
     11 C          63.4895   83.7141   10.1339 C.3     1  UNL1        0.4201
     12 F          62.3861   84.7296   10.1678 F       1  UNL1       -0.1658
     13 F          64.5929   82.6985   10.1001 F       1  UNL1       -0.1658
     14 C          62.6857   84.8867   16.4553 C.3     1  UNL1        0.1291
     15 C          62.7475   86.1617   17.2433 C.3     1  UNL1        0.0245
     16 C          62.8881   87.6543   17.2901 C.3     1  UNL1        0.0021
     17 C          62.7137   86.8773   18.5612 C.3     1  UNL1        0.0021
@<TRIPOS>BOND
     1    10    11    1
     2    11    12    1
     3    11    13    1
     4    11     1    1
     5     1     2   ar
     6     2     3   ar
     7     3     4   ar
     8     4     5   ar
     9     5     6   ar
    10     6     7   ar
    11     7     8   ar
    12     8     9   ar
    13     9    14    1
    14    14    15    1
    15    15    16    1
    16    16    17    1
    17     6     1   ar
    18    17    15    1
    19     9     5   ar
@<TRIPOS>MOLECULE
*****
 17 19 0 0 0
SMALL
GASTEIGER

@<TRIPOS>ATOM
      1 C          63.1360   84.1175   10.8836 C.ar    1  UNL1        0.0923
      2 C          63.6384   83.6915    9.5360 C.ar    1  UNL1        0.0055
      3 C          63.3881   84.5546    8.3350 C.ar    1  UNL1        0.0016
      4 C          62.6354   85.8437    8.4816 C.ar    1  UNL1        0.0204
      5 C          62.1330   86.2697    9.8292 C.ar    1  UNL1        0.0987
      6 C          62.3833   85.4067   11.0302 C.ar    1  UNL1        0.1256
      7 N          61.7714   86.0818   12.2217 N.ar    1  UNL1       -0.1288
      8 N          61.1430   87.3621   11.7572 N.ar    1  UNL1       -0.0639
      9 N          61.3665   87.4783   10.2785 N.ar    1  UNL1       -0.2318
     10 F          63.6366   82.3914   13.2856 F       1  UNL1       -0.1658
     11 C          63.3863   83.2544   12.0846 C.3     1  UNL1        0.4201
     12 F          62.2510   82.3617   11.6797 F       1  UNL1       -0.1658
     13 F          64.5217   84.1472   12.4896 F       1  UNL1       -0.1658
     14 C          60.9045   88.6051    9.4028 C.3     1  UNL1        0.1291
     15 C          59.9388   88.3398    8.2860 C.3     1  UNL1        0.0245
     16 C          59.1414   88.8304    7.1141 C.3     1  UNL1        0.0021
     17 C          59.0636   87.3895    7.5237 C.3     1  UNL1        0.0021
@<TRIPOS>BOND
     1    10    11    1
     2    11    12    1
     3    11    13    1
     4    11     1    1
     5     1     2   ar
     6     2     3   ar
     7     3     4   ar
     8     4     5   ar
     9     5     6   ar
    10     6     7   ar
    11     7     8   ar
    12     8     9   ar
    13     9    14    1
    14    14    15    1
    15    15    16    1
    16    16    17    1
    17     6     1   ar
    18    17    15    1
    19     9     5   ar
@<TRIPOS>MOLECULE
*****
 17 19 0 0 0
SMALL
GASTEIGER

@<TRIPOS>ATOM
      1 C          65.8864   92.2136   13.4798 C.ar    1  UNL1        0.0923
      2 C          66.2946   92.7577   12.1430 C.ar    1  UNL1        0.0055
      3 C          65.4739   92.4502   10.9257 C.ar    1  UNL1        0.0016
      4 C          64.2449   91.5987   11.0452 C.ar    1  UNL1        0.0204
      5 C          63.8366   91.0545   12.3821 C.ar    1  UNL1        0.0987
      6 C          64.6574   91.3620   13.5994 C.ar    1  UNL1        0.1256
      7 N          64.0120   90.6906   14.7752 N.ar    1  UNL1       -0.1288
      8 N          62.7924   89.9682   14.2847 N.ar    1  UNL1       -0.0639
      9 N          62.6840   90.1931   12.8056 N.ar    1  UNL1       -0.2318
     10 F          67.5279   92.8285   15.9144 F       1  UNL1       -0.1658
     11 C          66.7071   92.5210   14.6971 C.3     1  UNL1        0.4201
     12 F          66.3091   93.9641   14.6010 F       1  UNL1       -0.1658
     13 F          67.1051   91.0780   14.7933 F       1  UNL1       -0.1658
     14 C          61.6113   89.6517   11.9077 C.3     1  UNL1        0.1291
     15 C          61.8793   88.4397   11.0654 C.3     1  UNL1        0.0245
     16 C          62.1149   86.9627   10.9522 C.3     1  UNL1        0.0021
     17 C          62.1079   87.8176    9.7197 C.3     1  UNL1        0.0021
@<TRIPOS>BOND
     1    10    11    1
     2    11    12    1
     3    11    13    1
     4    11     1    1
     5     1     2   ar
     6     2     3   ar
     7     3     4   ar
     8     4     5   ar
     9     5     6   ar
    10     6     7   ar
    11     7     8   ar
    12     8     9   ar
    13     9    14    1
    14    14    15    1
    15    15    16    1
    16    16    17    1
    17     6     1   ar
    18    17    15    1
    19     9     5   ar
@<TRIPOS>MOLECULE
*****
 17 19 0 0 0
SMALL
GASTEIGER

@<TRIPOS>ATOM
      1 C          63.6699   90.2800   12.6623 C.ar    1  UNL1        0.0923
      2 C          63.1645   91.0669   11.4896 C.ar    1  UNL1        0.0055
      3 C          62.4545   90.3688   10.3678 C.ar    1  UNL1        0.0016
      4 C          62.2499   88.8837   10.4187 C.ar    1  UNL1        0.0204
      5 C          62.7552   88.0968   11.5914 C.ar    1  UNL1        0.0987
      6 C          63.4652   88.7949   12.7132 C.ar    1  UNL1        0.1256
      7 N          63.8498   87.7631   13.7318 N.ar    1  UNL1       -0.1288
      8 N          63.3774   86.4272   13.2395 N.ar    1  UNL1       -0.0639
      9 N          62.7010   86.6335   11.9167 N.ar    1  UNL1       -0.2318
     10 F          65.0899   91.6763   14.9059 F       1  UNL1       -0.1658
     11 C          64.3799   90.9781   13.7841 C.3     1  UNL1        0.4201
     12 F          63.2413   90.6552   14.7057 F       1  UNL1       -0.1658
     13 F          65.5185   91.3011   12.8625 F       1  UNL1       -0.1658
     14 C          62.0793   85.5641   11.0680 C.3     1  UNL1        0.1291
     15 C          62.2617   85.5875    9.5793 C.3     1  UNL1        0.0245
     16 C          61.7476   85.9316    8.2128 C.3     1  UNL1        0.0021
     17 C          63.0917   85.2839    8.3672 C.3     1  UNL1        0.0021
@<TRIPOS>BOND
     1    10    11    1
     2    11    12    1
     3    11    13    1
     4    11     1    1
     5     1     2   ar
     6     2     3   ar
     7     3     4   ar
     8     4     5   ar
     9     5     6   ar
    10     6     7   ar
    11     7     8   ar
    12     8     9   ar
    13     9    14    1
    14    14    15    1
    15    15    16    1
    16    16    17    1
    17     6     1   ar
    18    17    15    1
    19     9     5   ar
@<TRIPOS>MOLECULE
*****
 17 19 0 0 0
SMALL
GASTEIGER

@<TRIPOS>ATOM
      1 C          61.8453   88.4585   10.4937 C.ar    1  UNL1        0.0923
      2 C          61.1194   87.8224    9.3455 C.ar    1  UNL1        0.0055
      3 C          61.0292   86.3282    9.2505 C.ar    1  UNL1        0.0016
      4 C          61.6649   85.4699   10.3037 C.ar    1  UNL1        0.0204
      5 C          62.3908   86.1060   11.4519 C.ar    1  UNL1        0.0987
      6 C          62.4810   87.6003   11.5469 C.ar    1  UNL1        0.1256
      7 N          63.2566   87.9400   12.7851 N.ar    1  UNL1       -0.1288
      8 N          63.6457   86.6558   13.4554 N.ar    1  UNL1       -0.0639
      9 N          63.1106   85.5223   12.6314 N.ar    1  UNL1       -0.2318
     10 F          62.0258   91.4470   10.6837 F       1  UNL1       -0.1658
     11 C          61.9356   89.9528   10.5887 C.3     1  UNL1        0.4201
     12 F          63.2425   89.9206    9.8532 F       1  UNL1       -0.1658
     13 F          60.6286   89.9849   11.3241 F       1  UNL1       -0.1658
     14 C          63.2677   84.0615   12.9338 C.3     1  UNL1        0.1291
     15 C          63.5218   83.0883   11.8210 C.3     1  UNL1        0.0245
     16 C          63.2047   81.7969   11.1268 C.3     1  UNL1        0.0021
     17 C          64.2791   82.6940   10.5876 C.3     1  UNL1        0.0021
@<TRIPOS>BOND
     1    10    11    1
     2    11    12    1
     3    11    13    1
     4    11     1    1
     5     1     2   ar
     6     2     3   ar
     7     3     4   ar
     8     4     5   ar
     9     5     6   ar
    10     6     7   ar
    11     7     8   ar
    12     8     9   ar
    13     9    14    1
    14    14    15    1
    15    15    16    1
    16    16    17    1
    17     6     1   ar
    18    17    15    1
    19     9     5   ar
