@<TRIPOS>MOLECULE
*****
 32 34 0 0 0
SMALL
GASTEIGER

@<TRIPOS>ATOM
      1 C          61.3714   88.8481    9.5197 C.ar    1  UNL1        0.0566
      2 C          60.1255   88.8329    8.6846 C.ar    1  UNL1        0.0078
      3 C          59.7770   87.6161    7.8797 C.ar    1  UNL1        0.0402
      4 C          60.6744   86.4145    7.9099 C.ar    1  UNL1        0.1724
      5 C          61.9203   86.4298    8.7450 C.ar    1  UNL1        0.1722
      6 C          62.2688   87.6466    9.5499 C.ar    1  UNL1        0.0445
      7 N          63.1435   90.5313   10.4009 N.am    1  UNL1       -0.2968
      8 C          61.7199   90.0650   10.3247 C.2     1  UNL1        0.2462
      9 O          60.6448   90.8154   11.0534 O.2     1  UNL1       -0.2701
     10 H          63.8491   90.0388    9.9226 H       1  UNL1        0.1501
     11 C          63.4920   91.7482   11.2059 C.3     1  UNL1        0.1190
     12 N          66.3056   92.0878   13.8580 N.ar    1  UNL1       -0.2555
     13 N          65.5917   90.8629   14.3479 N.ar    1  UNL1       -0.1743
     14 C          64.4509   90.5866   13.4141 C.ar    1  UNL1        0.0777
     15 C          63.4730   89.4548   13.5274 C.3     1  UNL1        0.0537
     16 C          64.4596   91.6407   12.3470 C.ar    1  UNL1        0.0259
     17 C          65.6059   92.5686   12.6214 C.ar    1  UNL1        0.0547
     18 C          65.9858   93.7667   11.8028 C.3     1  UNL1        0.0515
     19 C          67.6190   92.7877   15.9876 C.3     1  UNL1        0.0284
     20 C          67.5080   92.7209   14.4932 C.3     1  UNL1        0.1271
     21 O          60.3259   85.1977    7.1049 O.3     1  UNL1       -0.4684
     22 C          61.3543   84.5694    6.2119 C.3     1  UNL1        0.2526
     23 O          62.8177   85.2282    8.7752 O.3     1  UNL1       -0.4760
     24 C          63.0478   84.4962   10.0641 C.3     1  UNL1        0.1688
     25 C          63.9618   83.3073   10.0985 C.3     1  UNL1        0.0609
     26 C          64.1919   82.5752   11.3874 C.3     1  UNL1        0.0758
     27 N          63.5080   83.0321   12.6418 N.3     1  UNL1       -0.2737
     28 C          62.5941   84.2211   12.6074 C.3     1  UNL1        0.0758
     29 C          62.3640   84.9531   11.3186 C.3     1  UNL1        0.0609
     30 C          63.7381   82.3001   13.9308 C.3     1  UNL1        0.0576
     31 C          63.6085   80.8065   13.9784 C.3     1  UNL1        0.0173
     32 C          64.0978   83.0617   15.1720 C.3     1  UNL1        0.0173
@<TRIPOS>BOND
     1    19    20    1
     2    20    12    1
     3    12    13   ar
     4    13    14   ar
     5    14    15    1
     6    14    16   ar
     7    16    11    1
     8    11     7    1
     9     7     8   am
    10     8     9    2
    11     8     1    1
    12     1     2   ar
    13     2     3   ar
    14     3     4   ar
    15     4    21    1
    16    21    22    1
    17     4     5   ar
    18     5    23    1
    19    23    24    1
    20    24    25    1
    21    25    26    1
    22    26    27    1
    23    27    30    1
    24    30    31    1
    25    30    32    1
    26    27    28    1
    27    28    29    1
    28     5     6   ar
    29    16    17   ar
    30    17    18    1
    31    17    12   ar
    32     6     1   ar
    33    29    24    1
    34     7    10    1
@<TRIPOS>MOLECULE
*****
 32 34 0 0 0
SMALL
GASTEIGER

@<TRIPOS>ATOM
      1 C          63.6527   87.1644   15.5588 C.ar    1  UNL1        0.0566
      2 C          63.1004   86.3988   16.7243 C.ar    1  UNL1        0.0078
      3 C          62.9256   84.9120   16.6299 C.ar    1  UNL1        0.0402
      4 C          63.3030   84.1910   15.3699 C.ar    1  UNL1        0.1724
      5 C          63.8552   84.9566   14.2043 C.ar    1  UNL1        0.1722
      6 C          64.0301   86.4434   14.2987 C.ar    1  UNL1        0.0445
      7 N          64.5324   89.3946   14.5574 N.am    1  UNL1       -0.2968
      8 C          63.8276   88.6513   15.6531 C.2     1  UNL1        0.2462
      9 O          63.2976   89.3947   16.8433 O.2     1  UNL1       -0.2701
     10 H          64.8803   88.9066   13.7763 H       1  UNL1        0.1501
     11 C          64.7073   90.8814   14.6518 C.3     1  UNL1        0.1190
     12 N          66.6989   92.6150   11.8069 N.ar    1  UNL1       -0.2555
     13 N          67.6804   92.6953   12.9384 N.ar    1  UNL1       -0.1743
     14 C          67.0538   92.0557   14.1418 C.ar    1  UNL1        0.0777
     15 C          67.6851   91.9162   15.4953 C.3     1  UNL1        0.0537
     16 C          65.6850   91.5801   13.7541 C.ar    1  UNL1        0.0259
     17 C          65.4657   91.9257   12.3110 C.ar    1  UNL1        0.0547
     18 C          64.2302   91.6334   11.5123 C.3     1  UNL1        0.0515
     19 C          68.0059   92.5609    9.5621 C.3     1  UNL1        0.0284
     20 C          66.9130   93.1330   10.4155 C.3     1  UNL1        0.1271
     21 O          63.1281   82.7041   15.2755 O.3     1  UNL1       -0.4684
     22 C          62.0239   82.1305   14.4378 C.3     1  UNL1        0.2526
     23 O          64.2327   84.2356   12.9443 O.3     1  UNL1       -0.4760
     24 C          63.5204   84.5451   11.6610 C.3     1  UNL1        0.1688
     25 C          64.0130   83.9611   10.3701 C.3     1  UNL1        0.0609
     26 C          63.3007   84.2706    9.0868 C.3     1  UNL1        0.0758
     27 N          62.0959   85.1642    9.0944 N.3     1  UNL1       -0.2737
     28 C          61.6034   85.7482   10.3852 C.3     1  UNL1        0.0758
     29 C          62.3156   85.4387   11.6685 C.3     1  UNL1        0.0609
     30 C          61.3836   85.4737    7.8110 C.3     1  UNL1        0.0576
     31 C          60.2357   86.4392    7.8044 C.3     1  UNL1        0.0173
     32 C          61.8193   84.8178    6.5344 C.3     1  UNL1        0.0173
@<TRIPOS>BOND
     1    19    20    1
     2    20    12    1
     3    12    13   ar
     4    13    14   ar
     5    14    15    1
     6    14    16   ar
     7    16    11    1
     8    11     7    1
     9     7     8   am
    10     8     9    2
    11     8     1    1
    12     1     2   ar
    13     2     3   ar
    14     3     4   ar
    15     4    21    1
    16    21    22    1
    17     4     5   ar
    18     5    23    1
    19    23    24    1
    20    24    25    1
    21    25    26    1
    22    26    27    1
    23    27    30    1
    24    30    31    1
    25    30    32    1
    26    27    28    1
    27    28    29    1
    28     5     6   ar
    29    16    17   ar
    30    17    18    1
    31    17    12   ar
    32     6     1   ar
    33    29    24    1
    34     7    10    1
@<TRIPOS>MOLECULE
*****
 32 34 0 0 0
SMALL
GASTEIGER

@<TRIPOS>ATOM
      1 C          61.1947   88.7381    9.5985 C.ar    1  UNL1        0.0566
      2 C          59.9963   88.6929    8.6975 C.ar    1  UNL1        0.0078
      3 C          59.7527   87.4914    7.8333 C.ar    1  UNL1        0.0402
      4 C          60.7074   86.3350    7.8701 C.ar    1  UNL1        0.1724
      5 C          61.9057   86.3802    8.7711 C.ar    1  UNL1        0.1722
      6 C          62.1494   87.5817    9.6353 C.ar    1  UNL1        0.0445
      7 N          62.7683   90.1255   11.1311 N.am    1  UNL1       -0.2968
      8 C          61.4384   89.9397   10.4627 C.2     1  UNL1        0.2462
      9 O          60.3521   90.9553   10.6586 O.2     1  UNL1       -0.2701
     10 H          63.4812   89.4589   11.0025 H       1  UNL1        0.1501
     11 C          63.0120   91.3271   11.9954 C.3     1  UNL1        0.1190
     12 N          66.3835   91.7188   13.8781 N.ar    1  UNL1       -0.2555
     13 N          66.6708   92.4673   12.6102 N.ar    1  UNL1       -0.1743
     14 C          65.4428   92.4116   11.7507 C.ar    1  UNL1        0.0777
     15 C          65.2882   93.0301   10.3929 C.3     1  UNL1        0.0537
     16 C          64.3965   91.6288   12.4872 C.ar    1  UNL1        0.0259
     17 C          64.9779   91.2007   13.8021 C.ar    1  UNL1        0.0547
     18 C          64.2768   90.3957   14.8558 C.3     1  UNL1        0.0515
     19 C          68.5648   92.3748   15.1277 C.3     1  UNL1        0.0284
     20 C          67.3347   91.5230   15.0212 C.3     1  UNL1        0.1271
     21 O          60.4637   85.1334    7.0058 O.3     1  UNL1       -0.4684
     22 C          61.5693   84.5871    6.1519 C.3     1  UNL1        0.2526
     23 O          62.8605   85.2238    8.8079 O.3     1  UNL1       -0.4760
     24 C          63.0854   84.4774   10.0894 C.3     1  UNL1        0.1688
     25 C          62.4129   84.9327   11.3505 C.3     1  UNL1        0.0609
     26 C          62.6379   84.1863   12.6320 C.3     1  UNL1        0.0758
     27 N          63.5353   82.9846   12.6524 N.3     1  UNL1       -0.2737
     28 C          64.2079   82.5293   11.3913 C.3     1  UNL1        0.0758
     29 C          63.9829   83.2757   10.1098 C.3     1  UNL1        0.0609
     30 C          63.7603   82.2382   13.9339 C.3     1  UNL1        0.0576
     31 C          64.1280   82.9846   15.1820 C.3     1  UNL1        0.0173
     32 C          63.6177   80.7454   13.9674 C.3     1  UNL1        0.0173
@<TRIPOS>BOND
     1    19    20    1
     2    20    12    1
     3    12    13   ar
     4    13    14   ar
     5    14    15    1
     6    14    16   ar
     7    16    11    1
     8    11     7    1
     9     7     8   am
    10     8     9    2
    11     8     1    1
    12     1     2   ar
    13     2     3   ar
    14     3     4   ar
    15     4    21    1
    16    21    22    1
    17     4     5   ar
    18     5    23    1
    19    23    24    1
    20    24    25    1
    21    25    26    1
    22    26    27    1
    23    27    30    1
    24    30    31    1
    25    30    32    1
    26    27    28    1
    27    28    29    1
    28     5     6   ar
    29    16    17   ar
    30    17    18    1
    31    17    12   ar
    32     6     1   ar
    33    29    24    1
    34     7    10    1
@<TRIPOS>MOLECULE
*****
 32 34 0 0 0
SMALL
GASTEIGER

@<TRIPOS>ATOM
      1 C          61.4716   86.2523    9.0706 C.ar    1  UNL1        0.0566
      2 C          60.5715   85.9508    7.9093 C.ar    1  UNL1        0.0078
      3 C          59.7227   87.0363    7.3168 C.ar    1  UNL1        0.0402
      4 C          59.7740   88.4233    7.8856 C.ar    1  UNL1        0.1724
      5 C          60.6741   88.7248    9.0470 C.ar    1  UNL1        0.1722
      6 C          61.5229   87.6393    9.6395 C.ar    1  UNL1        0.0445
      7 N          62.0471   84.6757   11.0539 N.am    1  UNL1       -0.2968
      8 C          62.3205   85.1668    9.6632 C.2     1  UNL1        0.2462
      9 O          63.4429   84.5725    8.8651 O.2     1  UNL1       -0.2701
     10 H          61.3104   85.0657   11.5777 H       1  UNL1        0.1501
     11 C          62.8960   83.5901   11.6464 C.3     1  UNL1        0.1190
     12 N          63.7994   84.4000   15.3333 N.ar    1  UNL1       -0.2555
     13 N          63.6996   82.9040   15.3812 N.ar    1  UNL1       -0.1743
     14 C          63.3490   82.4186   14.0059 C.ar    1  UNL1        0.0777
     15 C          63.1502   80.9884   13.5998 C.3     1  UNL1        0.0537
     16 C          63.2321   83.6145   13.1080 C.ar    1  UNL1        0.0259
     17 C          63.5105   84.8390   13.9284 C.ar    1  UNL1        0.0547
     18 C          63.5015   86.2542   13.4313 C.3     1  UNL1        0.0515
     19 C          63.0558   86.1333   17.1201 C.3     1  UNL1        0.0284
     20 C          64.1300   85.2989   16.4877 C.3     1  UNL1        0.1271
     21 O          58.9250   89.5088    7.2931 O.3     1  UNL1       -0.4684
     22 C          59.2400   90.0467    5.9287 C.3     1  UNL1        0.2526
     23 O          60.7254   90.1118    9.6159 O.3     1  UNL1       -0.4760
     24 C          61.8556   90.5114   10.5174 C.3     1  UNL1        0.1688
     25 C          62.9892   91.3335    9.9796 C.3     1  UNL1        0.0609
     26 C          64.1195   91.7331   10.8812 C.3     1  UNL1        0.0758
     27 N          64.1163   91.3105   12.3205 N.3     1  UNL1       -0.2737
     28 C          62.9827   90.4884   12.8582 C.3     1  UNL1        0.0758
     29 C          61.8524   90.0888   11.9567 C.3     1  UNL1        0.0609
     30 C          65.2466   91.7101   13.2220 C.3     1  UNL1        0.0576
     31 C          66.0989   92.8949   12.8761 C.3     1  UNL1        0.0173
     32 C          65.5245   90.9248   14.4695 C.3     1  UNL1        0.0173
@<TRIPOS>BOND
     1    19    20    1
     2    20    12    1
     3    12    13   ar
     4    13    14   ar
     5    14    15    1
     6    14    16   ar
     7    16    11    1
     8    11     7    1
     9     7     8   am
    10     8     9    2
    11     8     1    1
    12     1     2   ar
    13     2     3   ar
    14     3     4   ar
    15     4    21    1
    16    21    22    1
    17     4     5   ar
    18     5    23    1
    19    23    24    1
    20    24    25    1
    21    25    26    1
    22    26    27    1
    23    27    30    1
    24    30    31    1
    25    30    32    1
    26    27    28    1
    27    28    29    1
    28     5     6   ar
    29    16    17   ar
    30    17    18    1
    31    17    12   ar
    32     6     1   ar
    33    29    24    1
    34     7    10    1
@<TRIPOS>MOLECULE
*****
 32 34 0 0 0
SMALL
GASTEIGER

@<TRIPOS>ATOM
      1 C          61.8151   86.4453    9.5650 C.ar    1  UNL1        0.0566
      2 C          60.8933   86.0835    8.4383 C.ar    1  UNL1        0.0078
      3 C          60.0491   87.1410    7.7910 C.ar    1  UNL1        0.0402
      4 C          60.1267   88.5602    8.2704 C.ar    1  UNL1        0.1724
      5 C          61.0485   88.9220    9.3971 C.ar    1  UNL1        0.1722
      6 C          61.8926   87.8645   10.0444 C.ar    1  UNL1        0.0445
      7 N          62.9994   85.4877   11.6699 N.am    1  UNL1       -0.2968
      8 C          62.6593   85.3878   10.2124 C.2     1  UNL1        0.2462
      9 O          63.1635   84.2304    9.4022 O.2     1  UNL1       -0.2701
     10 H          62.6685   86.2473   12.2016 H       1  UNL1        0.1501
     11 C          63.8437   84.4302   12.3172 C.3     1  UNL1        0.1190
     12 N          62.0896   81.4667   14.1079 N.ar    1  UNL1       -0.2555
     13 N          62.4161   82.3559   15.2710 N.ar    1  UNL1       -0.1743
     14 C          63.1130   83.5742   14.7417 C.ar    1  UNL1        0.0777
     15 C          63.6171   84.7264   15.5592 C.3     1  UNL1        0.0537
     16 C          63.2171   83.4380   13.2516 C.ar    1  UNL1        0.0259
     17 C          62.5846   82.1355   12.8598 C.ar    1  UNL1        0.0547
     18 C          62.4676   81.5965   11.4649 C.3     1  UNL1        0.0515
     19 C          59.8924   80.0851   14.2248 C.3     1  UNL1        0.0284
     20 C          61.3907   80.1414   14.1801 C.3     1  UNL1        0.1271
     21 O          59.2824   89.6177    7.6230 O.3     1  UNL1       -0.4684
     22 C          59.2412   89.7335    6.1281 C.3     1  UNL1        0.2526
     23 O          61.1260   90.3412    9.8765 O.3     1  UNL1       -0.4760
     24 C          62.2751   90.7814   10.7342 C.3     1  UNL1        0.1688
     25 C          62.2870   90.4538   12.1979 C.3     1  UNL1        0.0609
     26 C          63.4362   90.8940   13.0557 C.3     1  UNL1        0.0758
     27 N          64.5735   91.6617   12.4496 N.3     1  UNL1       -0.2737
     28 C          64.5616   91.9893   10.9859 C.3     1  UNL1        0.0758
     29 C          63.4124   91.5491   10.1282 C.3     1  UNL1        0.0609
     30 C          65.7227   92.1020   13.3074 C.3     1  UNL1        0.0576
     31 C          66.4196   93.3986   13.0196 C.3     1  UNL1        0.0173
     32 C          66.1748   91.2455   14.4528 C.3     1  UNL1        0.0173
@<TRIPOS>BOND
     1    19    20    1
     2    20    12    1
     3    12    13   ar
     4    13    14   ar
     5    14    15    1
     6    14    16   ar
     7    16    11    1
     8    11     7    1
     9     7     8   am
    10     8     9    2
    11     8     1    1
    12     1     2   ar
    13     2     3   ar
    14     3     4   ar
    15     4    21    1
    16    21    22    1
    17     4     5   ar
    18     5    23    1
    19    23    24    1
    20    24    25    1
    21    25    26    1
    22    26    27    1
    23    27    30    1
    24    30    31    1
    25    30    32    1
    26    27    28    1
    27    28    29    1
    28     5     6   ar
    29    16    17   ar
    30    17    18    1
    31    17    12   ar
    32     6     1   ar
    33    29    24    1
    34     7    10    1
@<TRIPOS>MOLECULE
*****
 32 34 0 0 0
SMALL
GASTEIGER

@<TRIPOS>ATOM
      1 C          62.5247   90.1949   10.8902 C.ar    1  UNL1        0.0566
      2 C          61.1644   90.7935   10.6872 C.ar    1  UNL1        0.0078
      3 C          60.0842   89.9925   10.0227 C.ar    1  UNL1        0.0402
      4 C          60.3643   88.5931    9.5611 C.ar    1  UNL1        0.1724
      5 C          61.7246   87.9945    9.7641 C.ar    1  UNL1        0.1722
      6 C          62.8048   88.7954   10.4286 C.ar    1  UNL1        0.0445
      7 N          64.3346   92.0559   10.7840 N.am    1  UNL1       -0.2968
      8 C          63.6050   90.9958   11.5547 C.2     1  UNL1        0.2462
      9 O          63.9557   90.7366   12.9899 O.2     1  UNL1       -0.2701
     10 H          64.1044   92.2260    9.8421 H       1  UNL1        0.1501
     11 C          65.4149   92.8568   11.4486 C.3     1  UNL1        0.1190
     12 N          67.5092   95.3098    9.2895 N.ar    1  UNL1       -0.2555
     13 N          68.4402   94.1373    9.3815 N.ar    1  UNL1       -0.1743
     14 C          67.7689   93.0757   10.2015 C.ar    1  UNL1        0.0777
     15 C          68.3428   91.7334   10.5462 C.3     1  UNL1        0.0537
     16 C          66.4231   93.5921   10.6163 C.ar    1  UNL1        0.0259
     17 C          66.2626   94.9728   10.0526 C.ar    1  UNL1        0.0547
     18 C          65.0656   95.8608   10.2223 C.3     1  UNL1        0.0515
     19 C          67.1326   96.8518    7.2326 C.3     1  UNL1        0.0284
     20 C          67.7777   96.5939    8.5621 C.3     1  UNL1        0.1271
     21 O          59.2839   87.7922    8.8966 O.3     1  UNL1       -0.4684
     22 C          59.6155   86.9061    7.7326 C.3     1  UNL1        0.2526
     23 O          62.0046   86.5950    9.3025 O.3     1  UNL1       -0.4760
     24 C          62.3873   85.5397   10.2973 C.3     1  UNL1        0.1688
     25 C          63.2218   84.3701    9.8664 C.3     1  UNL1        0.0609
     26 C          63.6045   83.3147   10.8613 C.3     1  UNL1        0.0758
     27 N          63.1526   83.4288   12.2871 N.3     1  UNL1       -0.2737
     28 C          62.3181   84.5984   12.7180 C.3     1  UNL1        0.0758
     29 C          61.9354   85.6538   11.7232 C.3     1  UNL1        0.0609
     30 C          63.5352   82.3734   13.2820 C.3     1  UNL1        0.0576
     31 C          64.0234   82.7686   14.6441 C.3     1  UNL1        0.0173
     32 C          63.4297   80.9230   12.9147 C.3     1  UNL1        0.0173
@<TRIPOS>BOND
     1    19    20    1
     2    20    12    1
     3    12    13   ar
     4    13    14   ar
     5    14    15    1
     6    14    16   ar
     7    16    11    1
     8    11     7    1
     9     7     8   am
    10     8     9    2
    11     8     1    1
    12     1     2   ar
    13     2     3   ar
    14     3     4   ar
    15     4    21    1
    16    21    22    1
    17     4     5   ar
    18     5    23    1
    19    23    24    1
    20    24    25    1
    21    25    26    1
    22    26    27    1
    23    27    30    1
    24    30    31    1
    25    30    32    1
    26    27    28    1
    27    28    29    1
    28     5     6   ar
    29    16    17   ar
    30    17    18    1
    31    17    12   ar
    32     6     1   ar
    33    29    24    1
    34     7    10    1
@<TRIPOS>MOLECULE
*****
 32 34 0 0 0
SMALL
GASTEIGER

@<TRIPOS>ATOM
      1 C          64.4017   89.5178   14.1386 C.ar    1  UNL1        0.0566
      2 C          65.5089   90.4880   14.4264 C.ar    1  UNL1        0.0078
      3 C          65.6685   91.7163   13.5804 C.ar    1  UNL1        0.0402
      4 C          64.7210   91.9743   12.4465 C.ar    1  UNL1        0.1724
      5 C          63.6139   91.0041   12.1587 C.ar    1  UNL1        0.1722
      6 C          63.4543   89.7758   13.0047 C.ar    1  UNL1        0.0445
      7 N          64.9465   87.0207   14.6053 N.am    1  UNL1       -0.2968
      8 C          64.2421   88.2894   14.9847 C.2     1  UNL1        0.2462
      9 O          63.3780   88.3299   16.2101 O.2     1  UNL1       -0.2701
     10 H          65.5136   86.9941   13.8010 H       1  UNL1        0.1501
     11 C          64.7868   85.7923   15.4513 C.3     1  UNL1        0.1190
     12 N          62.5336   82.9695   14.0302 N.ar    1  UNL1       -0.2555
     13 N          61.6841   83.4790   15.1567 N.ar    1  UNL1       -0.1743
     14 C          62.4248   84.5985   15.8261 C.ar    1  UNL1        0.0777
     15 C          61.9429   85.3956   17.0018 C.3     1  UNL1        0.0537
     16 C          63.7320   84.7808   15.1134 C.ar    1  UNL1        0.0259
     17 C          63.7992   83.7740   14.0035 C.ar    1  UNL1        0.0547
     18 C          64.9330   83.6020   13.0366 C.3     1  UNL1        0.0515
     19 C          62.4502   80.4298   13.4886 C.3     1  UNL1        0.0284
     20 C          62.1795   81.8516   13.0948 C.3     1  UNL1        0.1271
     21 O          64.8807   93.2027   11.6005 O.3     1  UNL1       -0.4684
     22 C          66.1496   93.9997   11.6674 C.3     1  UNL1        0.2526
     23 O          62.6664   91.2622   11.0248 O.3     1  UNL1       -0.4760
     24 C          62.0399   90.1116   10.2943 C.3     1  UNL1        0.1688
     25 C          62.7511   88.7930   10.2212 C.3     1  UNL1        0.0609
     26 C          62.1245   87.6424    9.4906 C.3     1  UNL1        0.0758
     27 N          60.7868   87.8104    8.8333 N.3     1  UNL1       -0.2737
     28 C          60.0755   89.1291    8.9065 C.3     1  UNL1        0.0758
     29 C          60.7021   90.2796    9.6370 C.3     1  UNL1        0.0609
     30 C          60.1602   86.6598    8.1028 C.3     1  UNL1        0.0576
     31 C          58.6822   86.6494    7.8470 C.3     1  UNL1        0.0173
     32 C          61.0116   85.5198    7.6281 C.3     1  UNL1        0.0173
@<TRIPOS>BOND
     1    19    20    1
     2    20    12    1
     3    12    13   ar
     4    13    14   ar
     5    14    15    1
     6    14    16   ar
     7    16    11    1
     8    11     7    1
     9     7     8   am
    10     8     9    2
    11     8     1    1
    12     1     2   ar
    13     2     3   ar
    14     3     4   ar
    15     4    21    1
    16    21    22    1
    17     4     5   ar
    18     5    23    1
    19    23    24    1
    20    24    25    1
    21    25    26    1
    22    26    27    1
    23    27    30    1
    24    30    31    1
    25    30    32    1
    26    27    28    1
    27    28    29    1
    28     5     6   ar
    29    16    17   ar
    30    17    18    1
    31    17    12   ar
    32     6     1   ar
    33    29    24    1
    34     7    10    1
@<TRIPOS>MOLECULE
*****
 32 34 0 0 0
SMALL
GASTEIGER

@<TRIPOS>ATOM
      1 C          63.7093   87.5477   15.1354 C.ar    1  UNL1        0.0566
      2 C          63.4694   86.8629   16.4482 C.ar    1  UNL1        0.0078
      3 C          63.4656   85.3648   16.5229 C.ar    1  UNL1        0.0402
      4 C          63.7016   84.5515   15.2848 C.ar    1  UNL1        0.1724
      5 C          63.9414   85.2363   13.9720 C.ar    1  UNL1        0.1722
      6 C          63.9453   86.7344   13.8973 C.ar    1  UNL1        0.0445
      7 N          63.9718   89.7308   13.7515 N.am    1  UNL1       -0.2968
      8 C          63.7131   89.0459   15.0606 C.2     1  UNL1        0.2462
      9 O          63.4582   89.8590   16.2951 O.2     1  UNL1       -0.2701
     10 H          64.1391   89.1971   12.9413 H       1  UNL1        0.1501
     11 C          63.9756   91.2290   13.6767 C.3     1  UNL1        0.1190
     12 N          67.2458   93.1466   14.5098 N.ar    1  UNL1       -0.2555
     13 N          67.3015   93.1159   13.0111 N.ar    1  UNL1       -0.1743
     14 C          66.0833   92.3939   12.5167 C.ar    1  UNL1        0.0777
     15 C          65.7349   92.1332   11.0812 C.3     1  UNL1        0.0537
     16 C          65.2747   91.9783   13.7097 C.ar    1  UNL1        0.0259
     17 C          65.9932   92.4435   14.9416 C.ar    1  UNL1        0.0547
     18 C          65.5388   92.2411   16.3567 C.3     1  UNL1        0.0515
     19 C          69.2439   92.9053   16.1529 C.3     1  UNL1        0.0284
     20 C          68.2640   93.7708   15.4174 C.3     1  UNL1        0.1271
     21 O          63.6978   83.0533   15.3596 O.3     1  UNL1       -0.4684
     22 C          62.6629   82.2676   14.6101 C.3     1  UNL1        0.2526
     23 O          64.1774   84.4230   12.7339 O.3     1  UNL1       -0.4760
     24 C          63.4052   84.7202   11.4828 C.3     1  UNL1        0.1688
     25 C          63.8539   84.1483   10.1708 C.3     1  UNL1        0.0609
     26 C          63.0816   84.4456    8.9196 C.3     1  UNL1        0.0758
     27 N          61.8606   85.3147    8.9806 N.3     1  UNL1       -0.2737
     28 C          61.4119   85.8866   10.2927 C.3     1  UNL1        0.0758
     29 C          62.1841   85.5894   11.5438 C.3     1  UNL1        0.0609
     30 C          61.0883   85.6120    7.7295 C.3     1  UNL1        0.0576
     31 C          59.9678   86.6087    7.7588 C.3     1  UNL1        0.0173
     32 C          61.4366   84.9125    6.4491 C.3     1  UNL1        0.0173
@<TRIPOS>BOND
     1    19    20    1
     2    20    12    1
     3    12    13   ar
     4    13    14   ar
     5    14    15    1
     6    14    16   ar
     7    16    11    1
     8    11     7    1
     9     7     8   am
    10     8     9    2
    11     8     1    1
    12     1     2   ar
    13     2     3   ar
    14     3     4   ar
    15     4    21    1
    16    21    22    1
    17     4     5   ar
    18     5    23    1
    19    23    24    1
    20    24    25    1
    21    25    26    1
    22    26    27    1
    23    27    30    1
    24    30    31    1
    25    30    32    1
    26    27    28    1
    27    28    29    1
    28     5     6   ar
    29    16    17   ar
    30    17    18    1
    31    17    12   ar
    32     6     1   ar
    33    29    24    1
    34     7    10    1
@<TRIPOS>MOLECULE
*****
 32 34 0 0 0
SMALL
GASTEIGER

@<TRIPOS>ATOM
      1 C          62.0069   89.2859   10.7692 C.ar    1  UNL1        0.0566
      2 C          60.6967   89.5945   10.1075 C.ar    1  UNL1        0.0078
      3 C          60.1264   88.6466    9.0945 C.ar    1  UNL1        0.0402
      4 C          60.8663   87.3900    8.7433 C.ar    1  UNL1        0.1724
      5 C          62.1766   87.0813    9.4050 C.ar    1  UNL1        0.1722
      6 C          62.7469   88.0292   10.4180 C.ar    1  UNL1        0.0445
      7 N          63.5288   91.3099   11.3502 N.am    1  UNL1       -0.2968
      8 C          62.5773   90.2338   11.7822 C.2     1  UNL1        0.2462
      9 O          62.1961   90.1057   13.2273 O.2     1  UNL1       -0.2701
     10 H          63.7789   91.3940   10.4017 H       1  UNL1        0.1501
     11 C          64.0991   92.2578   12.3632 C.3     1  UNL1        0.1190
     12 N          67.6153   91.9325   13.9743 N.ar    1  UNL1       -0.2555
     13 N          67.9759   92.2390   12.5508 N.ar    1  UNL1       -0.1743
     14 C          66.7026   92.3981   11.7741 C.ar    1  UNL1        0.0777
     15 C          66.5956   92.7105   10.3109 C.3     1  UNL1        0.0537
     16 C          65.5551   92.1901   12.7174 C.ar    1  UNL1        0.0259
     17 C          66.1192   91.9023   14.0772 C.ar    1  UNL1        0.0547
     18 C          65.3264   91.6318   15.3215 C.3     1  UNL1        0.0515
     19 C          68.8707   92.7939   16.0795 C.3     1  UNL1        0.0284
     20 C          68.5813   91.6976   15.0975 C.3     1  UNL1        0.1271
     21 O          60.2960   86.4420    7.7303 O.3     1  UNL1       -0.4684
     22 C          58.8218   86.4384    7.4531 C.3     1  UNL1        0.2526
     23 O          62.9165   85.8247    9.0538 O.3     1  UNL1       -0.4760
     24 C          62.9968   84.7001   10.0431 C.3     1  UNL1        0.1688
     25 C          63.7282   83.4396    9.6881 C.3     1  UNL1        0.0609
     26 C          63.8084   82.3150   10.6776 C.3     1  UNL1        0.0758
     27 N          63.1572   82.4510   12.0220 N.3     1  UNL1       -0.2737
     28 C          62.4258   83.7115   12.3770 C.3     1  UNL1        0.0758
     29 C          62.3456   84.8361   11.3876 C.3     1  UNL1        0.0609
     30 C          63.2375   81.3264   13.0114 C.3     1  UNL1        0.0576
     31 C          63.9665   81.5189   14.3081 C.3     1  UNL1        0.0173
     32 C          62.5886   80.0094   12.7042 C.3     1  UNL1        0.0173
@<TRIPOS>BOND
     1    19    20    1
     2    20    12    1
     3    12    13   ar
     4    13    14   ar
     5    14    15    1
     6    14    16   ar
     7    16    11    1
     8    11     7    1
     9     7     8   am
    10     8     9    2
    11     8     1    1
    12     1     2   ar
    13     2     3   ar
    14     3     4   ar
    15     4    21    1
    16    21    22    1
    17     4     5   ar
    18     5    23    1
    19    23    24    1
    20    24    25    1
    21    25    26    1
    22    26    27    1
    23    27    30    1
    24    30    31    1
    25    30    32    1
    26    27    28    1
    27    28    29    1
    28     5     6   ar
    29    16    17   ar
    30    17    18    1
    31    17    12   ar
    32     6     1   ar
    33    29    24    1
    34     7    10    1
