@<TRIPOS>MOLECULE
*****
 30 33 0 0 0
SMALL
GASTEIGER

@<TRIPOS>ATOM
      1 C          65.2651   92.0688   12.4504 C.ar    1  UNL1       -0.0004
      2 C          64.8675   91.2708   13.6566 C.ar    1  UNL1       -0.0024
      3 C          63.7094   90.3207   13.5788 C.ar    1  UNL1       -0.0002
      4 C          62.9488   90.1687   12.2949 C.ar    1  UNL1        0.0030
      5 C          61.7907   89.2186   12.2172 C.ar    1  UNL1        0.0369
      6 C          61.0301   89.0666   10.9333 C.ar    1  UNL1        0.1386
      7 C          61.4277   89.8647    9.7270 C.ar    1  UNL1        0.0369
      8 C          62.5859   90.8148    9.8048 C.ar    1  UNL1        0.0031
      9 C          63.3464   90.9668   11.0887 C.ar    1  UNL1       -0.0001
     10 C          64.5045   91.9168   11.1664 C.ar    1  UNL1       -0.0024
     11 C          66.4232   93.0190   12.5281 C.3     1  UNL1        0.1240
     12 N          67.3225   93.0087   13.7286 N.ar    1  UNL1       -0.3045
     13 C          67.2112   93.9113   14.9214 C.ar    1  UNL1        0.0983
     14 C          68.3108   93.5545   15.8771 C.ar    1  UNL1        0.1193
     15 N          69.1019   92.4312   15.2749 N.ar    1  UNL1       -0.2223
     16 C          68.4910   92.0939   13.9471 C.ar    1  UNL1        0.1788
     17 C          66.0837   95.3543   11.4414 C.3     1  UNL1        0.0197
     18 C          66.6821   93.9793   11.4053 C.3     1  UNL1        0.0827
     19 N          67.5394   93.5647   10.2463 N.3     1  UNL1       -0.2696
     20 C          68.1542   92.1967   10.2198 C.3     1  UNL1        0.0897
     21 C          67.7819   94.5180    9.1139 C.3     1  UNL1        0.0897
     22 O          59.8720   88.1165   10.8555 O.3     1  UNL1       -0.4751
     23 C          59.8395   87.0590    9.7922 C.3     1  UNL1        0.2103
     24 C          61.0611   86.2326    9.5188 C.3     1  UNL1        0.0723
     25 C          61.2983   86.0953   10.9935 C.3     1  UNL1        0.0088
     26 C          62.5199   85.2689   10.7200 C.3     1  UNL1        0.0010
     27 C          62.2827   85.4062    9.2453 C.3     1  UNL1        0.0088
     28 C          60.8239   86.3699    8.0441 C.2     1  UNL1        0.0532
     29 O          59.9229   87.4519    7.5269 O.co2   1  UNL1       -0.5491
     30 O          61.4877   85.4252    7.0864 O.co2   1  UNL1       -0.5491
@<TRIPOS>UNITY_ATOM_ATTR
29 1
charge -1
@<TRIPOS>BOND
     1    18    17    1
     2    18    11    1
     3    11     1    1
     4     1     2   ar
     5     2     3   ar
     6     3     4   ar
     7     4     5   ar
     8     5     6   ar
     9     6    22    1
    10    22    23    1
    11    23    24    1
    12    24    28    1
    13    28    29   ar
    14    28    30   ar
    15    24    25    1
    16    25    26    1
    17    26    27    1
    18     6     7   ar
    19     7     8   ar
    20     8     9   ar
    21     9    10   ar
    22    11    12    1
    23    12    13   ar
    24    13    14   ar
    25    14    15   ar
    26    15    16   ar
    27    18    19    1
    28    19    20    1
    29    19    21    1
    30    10     1   ar
    31    16    12   ar
    32     9     4   ar
    33    27    24    1
@<TRIPOS>MOLECULE
*****
 30 33 0 0 0
SMALL
GASTEIGER

@<TRIPOS>ATOM
      1 C          63.5057   85.6118   12.8929 C.ar    1  UNL1       -0.0004
      2 C          64.2345   85.5604   14.2029 C.ar    1  UNL1       -0.0024
      3 C          64.6260   86.8330   14.8937 C.ar    1  UNL1       -0.0002
      4 C          64.2888   88.1569   14.2745 C.ar    1  UNL1        0.0030
      5 C          64.6804   89.4295   14.9654 C.ar    1  UNL1        0.0369
      6 C          64.3431   90.7535   14.3462 C.ar    1  UNL1        0.1386
      7 C          63.6143   90.8048   13.0361 C.ar    1  UNL1        0.0369
      8 C          63.2227   89.5322   12.3453 C.ar    1  UNL1        0.0031
      9 C          63.5600   88.2083   12.9645 C.ar    1  UNL1       -0.0001
     10 C          63.1685   86.9357   12.2737 C.ar    1  UNL1       -0.0024
     11 C          63.1141   84.3392   12.2020 C.3     1  UNL1        0.1240
     12 N          62.5784   83.1871   12.9994 N.ar    1  UNL1       -0.3045
     13 C          62.3132   81.8044   12.4821 C.ar    1  UNL1        0.0983
     14 C          61.7847   80.9782   13.6170 C.ar    1  UNL1        0.1193
     15 N          61.7233   81.8504   14.8359 N.ar    1  UNL1       -0.2223
     16 C          62.2138   83.2155   14.4541 C.ar    1  UNL1        0.1788
     17 C          64.1826   83.1913   10.1306 C.3     1  UNL1        0.0197
     18 C          63.2583   84.2187   10.7139 C.3     1  UNL1        0.0827
     19 N          62.4781   85.1255    9.8089 N.3     1  UNL1       -0.2696
     20 C          62.9788   85.4158    8.4250 C.3     1  UNL1        0.0897
     21 C          61.1973   85.7421   10.2878 C.3     1  UNL1        0.0897
     22 O          64.7346   92.0260   15.0369 O.3     1  UNL1       -0.4751
     23 C          65.7963   92.9049   14.4448 C.3     1  UNL1        0.2103
     24 C          67.2448   92.5763   14.6542 C.3     1  UNL1        0.0723
     25 C          67.0761   92.7740   16.1314 C.3     1  UNL1        0.0088
     26 C          68.5246   92.4454   16.3408 C.3     1  UNL1        0.0010
     27 C          68.6933   92.2477   14.8635 C.3     1  UNL1        0.0088
     28 C          67.4135   92.3786   13.1769 C.2     1  UNL1        0.0532
     29 O          68.6517   91.7199   12.6449 O.co2   1  UNL1       -0.5491
     30 O          66.3439   92.8396   12.2315 O.co2   1  UNL1       -0.5491
@<TRIPOS>UNITY_ATOM_ATTR
29 1
charge -1
@<TRIPOS>BOND
     1    18    17    1
     2    18    11    1
     3    11     1    1
     4     1     2   ar
     5     2     3   ar
     6     3     4   ar
     7     4     5   ar
     8     5     6   ar
     9     6    22    1
    10    22    23    1
    11    23    24    1
    12    24    28    1
    13    28    29   ar
    14    28    30   ar
    15    24    25    1
    16    25    26    1
    17    26    27    1
    18     6     7   ar
    19     7     8   ar
    20     8     9   ar
    21     9    10   ar
    22    11    12    1
    23    12    13   ar
    24    13    14   ar
    25    14    15   ar
    26    15    16   ar
    27    18    19    1
    28    19    20    1
    29    19    21    1
    30    10     1   ar
    31    16    12   ar
    32     9     4   ar
    33    27    24    1
@<TRIPOS>MOLECULE
*****
 30 33 0 0 0
SMALL
GASTEIGER

@<TRIPOS>ATOM
      1 C          62.3793   88.0717   10.7536 C.ar    1  UNL1       -0.0004
      2 C          62.3975   89.4185   10.0937 C.ar    1  UNL1       -0.0024
      3 C          62.9735   90.6000   10.8164 C.ar    1  UNL1       -0.0002
      4 C          63.5313   90.4346   12.1990 C.ar    1  UNL1        0.0030
      5 C          64.1073   91.6161   12.9217 C.ar    1  UNL1        0.0369
      6 C          64.6650   91.4507   14.3043 C.ar    1  UNL1        0.1386
      7 C          64.6467   90.1038   14.9642 C.ar    1  UNL1        0.0369
      8 C          64.0707   88.9223   14.2415 C.ar    1  UNL1        0.0031
      9 C          63.5130   89.0877   12.8589 C.ar    1  UNL1       -0.0001
     10 C          62.9370   87.9062   12.1362 C.ar    1  UNL1       -0.0024
     11 C          61.8033   86.8901   10.0309 C.3     1  UNL1        0.1240
     12 N          60.7290   87.0902    9.0034 N.ar    1  UNL1       -0.3045
     13 C          60.1540   88.4074    8.5739 C.ar    1  UNL1        0.0983
     14 C          59.1107   88.1395    7.5299 C.ar    1  UNL1        0.1193
     15 N          59.0409   86.6567    7.3142 N.ar    1  UNL1       -0.2223
     16 C          60.0411   86.0082    8.2248 C.ar    1  UNL1        0.1788
     17 C          61.9562   84.8581   11.6427 C.3     1  UNL1        0.0197
     18 C          62.3015   85.5086   10.3358 C.3     1  UNL1        0.0827
     19 N          63.1451   84.7774    9.3340 N.3     1  UNL1       -0.2696
     20 C          63.1832   85.2381    7.9069 C.3     1  UNL1        0.0897
     21 C          63.9507   83.5856    9.7591 C.3     1  UNL1        0.0897
     22 O          65.2410   92.6322   15.0270 O.3     1  UNL1       -0.4751
     23 C          66.4043   93.3759   14.4407 C.3     1  UNL1        0.2103
     24 C          67.7955   92.8382   14.6001 C.3     1  UNL1        0.0723
     25 C          67.7119   93.0608   16.0811 C.3     1  UNL1        0.0088
     26 C          69.1030   92.5231   16.2405 C.3     1  UNL1        0.0010
     27 C          69.1867   92.3005   14.7595 C.3     1  UNL1        0.0088
     28 C          67.8791   92.6155   13.1191 C.2     1  UNL1        0.0532
     29 O          67.0317   93.4320   12.1889 O.co2   1  UNL1       -0.5491
     30 O          68.8102   91.5764   12.5682 O.co2   1  UNL1       -0.5491
@<TRIPOS>UNITY_ATOM_ATTR
29 1
charge -1
@<TRIPOS>BOND
     1    18    17    1
     2    18    11    1
     3    11     1    1
     4     1     2   ar
     5     2     3   ar
     6     3     4   ar
     7     4     5   ar
     8     5     6   ar
     9     6    22    1
    10    22    23    1
    11    23    24    1
    12    24    28    1
    13    28    29   ar
    14    28    30   ar
    15    24    25    1
    16    25    26    1
    17    26    27    1
    18     6     7   ar
    19     7     8   ar
    20     8     9   ar
    21     9    10   ar
    22    11    12    1
    23    12    13   ar
    24    13    14   ar
    25    14    15   ar
    26    15    16   ar
    27    18    19    1
    28    19    20    1
    29    19    21    1
    30    10     1   ar
    31    16    12   ar
    32     9     4   ar
    33    27    24    1
@<TRIPOS>MOLECULE
*****
 30 33 0 0 0
SMALL
GASTEIGER

@<TRIPOS>ATOM
      1 C          62.5216   87.7859   10.6773 C.ar    1  UNL1       -0.0004
      2 C          62.4987   89.1339   10.0199 C.ar    1  UNL1       -0.0024
      3 C          63.0064   90.3370   10.7580 C.ar    1  UNL1       -0.0002
      4 C          63.5370   90.1920   12.1535 C.ar    1  UNL1        0.0030
      5 C          64.0447   91.3952   12.8916 C.ar    1  UNL1        0.0369
      6 C          64.5753   91.2502   14.2872 C.ar    1  UNL1        0.1386
      7 C          64.5982   89.9021   14.9446 C.ar    1  UNL1        0.0369
      8 C          64.0905   88.6990   14.2064 C.ar    1  UNL1        0.0031
      9 C          63.5599   88.8440   12.8109 C.ar    1  UNL1       -0.0001
     10 C          63.0522   87.6409   12.0728 C.ar    1  UNL1       -0.0024
     11 C          62.0139   86.5827    9.9392 C.3     1  UNL1        0.1240
     12 N          62.5848   85.2270   10.2324 N.ar    1  UNL1       -0.3045
     13 C          62.3458   84.4193   11.4736 C.ar    1  UNL1        0.0983
     14 C          63.1082   83.1339   11.3442 C.ar    1  UNL1        0.1193
     15 N          63.8183   83.1472   10.0230 N.ar    1  UNL1       -0.2223
     16 C          63.4948   84.4408    9.3359 C.ar    1  UNL1        0.1788
     17 C          60.8993   85.8210    7.7194 C.3     1  UNL1        0.0197
     18 C          60.9354   86.7354    8.9080 C.3     1  UNL1        0.0827
     19 N          59.8930   87.8025    9.0652 N.3     1  UNL1       -0.2696
     20 C          59.3627   88.1380   10.4277 C.3     1  UNL1        0.0897
     21 C          59.3809   88.5341    7.8600 C.3     1  UNL1        0.0897
     22 O          65.0830   92.4533   15.0253 O.3     1  UNL1       -0.4751
     23 C          66.2234   93.2507   14.4652 C.3     1  UNL1        0.2103
     24 C          67.6330   92.7686   14.6402 C.3     1  UNL1        0.0723
     25 C          67.5041   92.9310   16.1258 C.3     1  UNL1        0.0088
     26 C          68.9137   92.4488   16.3008 C.3     1  UNL1        0.0010
     27 C          69.0425   92.2865   14.8152 C.3     1  UNL1        0.0088
     28 C          67.7619   92.6063   13.1546 C.2     1  UNL1        0.0532
     29 O          66.8949   93.4130   12.2340 O.co2   1  UNL1       -0.5491
     30 O          68.7577   91.6371   12.5896 O.co2   1  UNL1       -0.5491
@<TRIPOS>UNITY_ATOM_ATTR
29 1
charge -1
@<TRIPOS>BOND
     1    18    17    1
     2    18    11    1
     3    11     1    1
     4     1     2   ar
     5     2     3   ar
     6     3     4   ar
     7     4     5   ar
     8     5     6   ar
     9     6    22    1
    10    22    23    1
    11    23    24    1
    12    24    28    1
    13    28    29   ar
    14    28    30   ar
    15    24    25    1
    16    25    26    1
    17    26    27    1
    18     6     7   ar
    19     7     8   ar
    20     8     9   ar
    21     9    10   ar
    22    11    12    1
    23    12    13   ar
    24    13    14   ar
    25    14    15   ar
    26    15    16   ar
    27    18    19    1
    28    19    20    1
    29    19    21    1
    30    10     1   ar
    31    16    12   ar
    32     9     4   ar
    33    27    24    1
@<TRIPOS>MOLECULE
*****
 30 33 0 0 0
SMALL
GASTEIGER

@<TRIPOS>ATOM
      1 C          65.2476   91.9668   12.4371 C.ar    1  UNL1       -0.0004
      2 C          65.0247   91.0014   13.5632 C.ar    1  UNL1       -0.0024
      3 C          63.9706   89.9409   13.4443 C.ar    1  UNL1       -0.0002
      4 C          63.1394   89.8459   12.1992 C.ar    1  UNL1        0.0030
      5 C          62.0852   88.7854   12.0803 C.ar    1  UNL1        0.0369
      6 C          61.2540   88.6903   10.8353 C.ar    1  UNL1        0.1386
      7 C          61.4770   89.6559    9.7092 C.ar    1  UNL1        0.0369
      8 C          62.5311   90.7163    9.8281 C.ar    1  UNL1        0.0031
      9 C          63.3623   90.8113   11.0731 C.ar    1  UNL1       -0.0001
     10 C          64.4164   91.8718   11.1920 C.ar    1  UNL1       -0.0024
     11 C          66.3018   93.0274   12.5560 C.3     1  UNL1        0.1240
     12 N          66.5257   93.9919   11.4292 N.ar    1  UNL1       -0.3045
     13 C          66.1807   95.4516   11.4364 C.ar    1  UNL1        0.0983
     14 C          66.5757   96.0279   10.1091 C.ar    1  UNL1        0.1193
     15 N          67.1649   94.9244    9.2815 N.ar    1  UNL1       -0.2223
     16 C          67.1340   93.6660   10.0974 C.ar    1  UNL1        0.1788
     17 C          66.6315   93.9082   14.9779 C.3     1  UNL1        0.0197
     18 C          67.1320   93.1233   13.8015 C.3     1  UNL1        0.0827
     19 N          68.4627   92.4345   13.8709 N.3     1  UNL1       -0.2696
     20 C          69.3226   92.5853   15.0908 C.3     1  UNL1        0.0897
     21 C          68.9335   91.5950   12.7205 C.3     1  UNL1        0.0897
     22 O          60.1999   87.6299   10.7164 O.3     1  UNL1       -0.4751
     23 C          60.4061   86.4678    9.7905 C.3     1  UNL1        0.2103
     24 C          61.6860   85.6872    9.8403 C.3     1  UNL1        0.0723
     25 C          61.5776   85.6046   11.3340 C.3     1  UNL1        0.0088
     26 C          62.8574   84.8240   11.3838 C.3     1  UNL1        0.0010
     27 C          62.9659   84.9066    9.8900 C.3     1  UNL1        0.0088
     28 C          61.7945   85.7698    8.3465 C.2     1  UNL1        0.0532
     29 O          60.7480   86.4997    7.5578 O.co2   1  UNL1       -0.5491
     30 O          62.9495   85.1225    7.6414 O.co2   1  UNL1       -0.5491
@<TRIPOS>UNITY_ATOM_ATTR
29 1
charge -1
@<TRIPOS>BOND
     1    18    17    1
     2    18    11    1
     3    11     1    1
     4     1     2   ar
     5     2     3   ar
     6     3     4   ar
     7     4     5   ar
     8     5     6   ar
     9     6    22    1
    10    22    23    1
    11    23    24    1
    12    24    28    1
    13    28    29   ar
    14    28    30   ar
    15    24    25    1
    16    25    26    1
    17    26    27    1
    18     6     7   ar
    19     7     8   ar
    20     8     9   ar
    21     9    10   ar
    22    11    12    1
    23    12    13   ar
    24    13    14   ar
    25    14    15   ar
    26    15    16   ar
    27    18    19    1
    28    19    20    1
    29    19    21    1
    30    10     1   ar
    31    16    12   ar
    32     9     4   ar
    33    27    24    1
@<TRIPOS>MOLECULE
*****
 30 33 0 0 0
SMALL
GASTEIGER

@<TRIPOS>ATOM
      1 C          63.6362   85.5981   13.6148 C.ar    1  UNL1       -0.0004
      2 C          64.4124   85.9566   14.8472 C.ar    1  UNL1       -0.0024
      3 C          64.7539   87.3899   15.1280 C.ar    1  UNL1       -0.0002
      4 C          64.3191   88.4648   14.1763 C.ar    1  UNL1        0.0030
      5 C          64.6606   89.8982   14.4571 C.ar    1  UNL1        0.0369
      6 C          64.2259   90.9731   13.5055 C.ar    1  UNL1        0.1386
      7 C          63.4496   90.6145   12.2730 C.ar    1  UNL1        0.0369
      8 C          63.1081   89.1812   11.9922 C.ar    1  UNL1        0.0031
      9 C          63.5429   88.1063   12.9439 C.ar    1  UNL1       -0.0001
     10 C          63.2014   86.6730   12.6631 C.ar    1  UNL1       -0.0024
     11 C          63.2947   84.1647   13.3340 C.3     1  UNL1        0.1240
     12 N          63.6181   83.5645   11.9978 N.ar    1  UNL1       -0.3045
     13 C          62.8578   83.7868   10.7241 C.ar    1  UNL1        0.0983
     14 C          63.5285   82.9964    9.6399 C.ar    1  UNL1        0.1193
     15 N          64.7034   82.2856   10.2436 N.ar    1  UNL1       -0.2223
     16 C          64.7588   82.6368   11.7009 C.ar    1  UNL1        0.1788
     17 C          62.0789   83.9833   15.6229 C.3     1  UNL1        0.0197
     18 C          62.6297   83.3315   14.3892 C.3     1  UNL1        0.0827
     19 N          62.5155   81.8465   14.2109 N.3     1  UNL1       -0.2696
     20 C          61.1643   81.2090   14.0763 C.3     1  UNL1        0.0897
     21 C          63.7524   80.9991   14.1671 C.3     1  UNL1        0.0897
     22 O          64.5674   92.4064   13.7862 O.3     1  UNL1       -0.4751
     23 C          65.9823   92.8828   13.6405 C.3     1  UNL1        0.2103
     24 C          66.7287   92.6363   12.3630 C.3     1  UNL1        0.0723
     25 C          65.6520   93.3459   11.5969 C.3     1  UNL1        0.0088
     26 C          66.3985   93.0994   10.3194 C.3     1  UNL1        0.0010
     27 C          67.4752   92.3898   11.0855 C.3     1  UNL1        0.0088
     28 C          67.8055   91.9267   13.1291 C.2     1  UNL1        0.0532
     29 O          69.0873   91.5501   12.4471 O.co2   1  UNL1       -0.5491
     30 O          67.6005   91.5937   14.5773 O.co2   1  UNL1       -0.5491
@<TRIPOS>UNITY_ATOM_ATTR
29 1
charge -1
@<TRIPOS>BOND
     1    18    17    1
     2    18    11    1
     3    11     1    1
     4     1     2   ar
     5     2     3   ar
     6     3     4   ar
     7     4     5   ar
     8     5     6   ar
     9     6    22    1
    10    22    23    1
    11    23    24    1
    12    24    28    1
    13    28    29   ar
    14    28    30   ar
    15    24    25    1
    16    25    26    1
    17    26    27    1
    18     6     7   ar
    19     7     8   ar
    20     8     9   ar
    21     9    10   ar
    22    11    12    1
    23    12    13   ar
    24    13    14   ar
    25    14    15   ar
    26    15    16   ar
    27    18    19    1
    28    19    20    1
    29    19    21    1
    30    10     1   ar
    31    16    12   ar
    32     9     4   ar
    33    27    24    1
@<TRIPOS>MOLECULE
*****
 30 33 0 0 0
SMALL
GASTEIGER

@<TRIPOS>ATOM
      1 C          63.5090   85.6644   12.8416 C.ar    1  UNL1       -0.0004
      2 C          64.2638   85.6753   14.1378 C.ar    1  UNL1       -0.0024
      3 C          64.6588   86.9794   14.7647 C.ar    1  UNL1       -0.0002
      4 C          64.2990   88.2727   14.0954 C.ar    1  UNL1        0.0030
      5 C          64.6940   89.5770   14.7224 C.ar    1  UNL1        0.0369
      6 C          64.3342   90.8703   14.0531 C.ar    1  UNL1        0.1386
      7 C          63.5794   90.8593   12.7569 C.ar    1  UNL1        0.0369
      8 C          63.1844   89.5551   12.1300 C.ar    1  UNL1        0.0031
      9 C          63.5442   88.2618   12.7992 C.ar    1  UNL1       -0.0001
     10 C          63.1492   86.9577   12.1723 C.ar    1  UNL1       -0.0024
     11 C          63.1140   84.3601   12.2146 C.3     1  UNL1        0.1240
     12 N          62.5842   83.2472   13.0693 N.ar    1  UNL1       -0.3045
     13 C          62.2372   81.8649   12.6015 C.ar    1  UNL1        0.0983
     14 C          61.7468   81.0844   13.7850 C.ar    1  UNL1        0.1193
     15 N          61.7908   81.9844   14.9842 N.ar    1  UNL1       -0.2223
     16 C          62.3083   83.3210   14.5419 C.ar    1  UNL1        0.1788
     17 C          64.1373   83.0871   10.1941 C.3     1  UNL1        0.0197
     18 C          63.2489   84.1690   10.7330 C.3     1  UNL1        0.0827
     19 N          62.4953   85.0596    9.7902 N.3     1  UNL1       -0.2696
     20 C          61.2113   85.6997   10.2279 C.3     1  UNL1        0.0897
     21 C          63.0257   85.3101    8.4097 C.3     1  UNL1        0.0897
     22 O          64.7292   92.1744   14.6801 O.3     1  UNL1       -0.4751
     23 C          66.1017   92.7332   14.4474 C.3     1  UNL1        0.2103
     24 C          66.7395   92.6167   13.0948 C.3     1  UNL1        0.0723
     25 C          65.6092   93.3988   12.4944 C.3     1  UNL1        0.0088
     26 C          66.2471   93.2823   11.1418 C.3     1  UNL1        0.0010
     27 C          67.3774   92.5001   11.7422 C.3     1  UNL1        0.0088
     28 C          67.8698   91.8345   13.6953 C.2     1  UNL1        0.0532
     29 O          69.0848   91.5210   12.8734 O.co2   1  UNL1       -0.5491
     30 O          67.7852   91.3658   15.1177 O.co2   1  UNL1       -0.5491
@<TRIPOS>UNITY_ATOM_ATTR
29 1
charge -1
@<TRIPOS>BOND
     1    18    17    1
     2    18    11    1
     3    11     1    1
     4     1     2   ar
     5     2     3   ar
     6     3     4   ar
     7     4     5   ar
     8     5     6   ar
     9     6    22    1
    10    22    23    1
    11    23    24    1
    12    24    28    1
    13    28    29   ar
    14    28    30   ar
    15    24    25    1
    16    25    26    1
    17    26    27    1
    18     6     7   ar
    19     7     8   ar
    20     8     9   ar
    21     9    10   ar
    22    11    12    1
    23    12    13   ar
    24    13    14   ar
    25    14    15   ar
    26    15    16   ar
    27    18    19    1
    28    19    20    1
    29    19    21    1
    30    10     1   ar
    31    16    12   ar
    32     9     4   ar
    33    27    24    1
@<TRIPOS>MOLECULE
*****
 30 33 0 0 0
SMALL
GASTEIGER

@<TRIPOS>ATOM
      1 C          62.4765   85.6724   11.4485 C.ar    1  UNL1       -0.0004
      2 C          62.6340   87.1132   11.8346 C.ar    1  UNL1       -0.0024
      3 C          61.9710   88.1845   11.0205 C.ar    1  UNL1       -0.0002
      4 C          61.1505   87.8150    9.8204 C.ar    1  UNL1        0.0030
      5 C          60.4875   88.8864    9.0063 C.ar    1  UNL1        0.0369
      6 C          59.6671   88.5168    7.8062 C.ar    1  UNL1        0.1386
      7 C          59.5095   87.0758    7.4202 C.ar    1  UNL1        0.0369
      8 C          60.1725   86.0046    8.2343 C.ar    1  UNL1        0.0031
      9 C          60.9930   86.3741    9.4344 C.ar    1  UNL1       -0.0001
     10 C          61.6560   85.3028   10.2485 C.ar    1  UNL1       -0.0024
     11 C          63.1395   84.6010   12.2626 C.3     1  UNL1        0.1240
     12 N          63.2325   84.7411   13.7532 N.ar    1  UNL1       -0.3045
     13 C          62.1717   84.3591   14.7425 C.ar    1  UNL1        0.0983
     14 C          62.6862   84.6697   16.1169 C.ar    1  UNL1        0.1193
     15 N          64.0649   85.2436   15.9770 N.ar    1  UNL1       -0.2223
     16 C          64.4025   85.2877   14.5161 C.ar    1  UNL1        0.1788
     17 C          64.4383   83.5317   10.2828 C.3     1  UNL1        0.0197
     18 C          63.7094   83.3896   11.5862 C.3     1  UNL1        0.0827
     19 N          63.5506   82.0362   12.2130 N.3     1  UNL1       -0.2696
     20 C          64.3420   81.6784   13.4360 C.3     1  UNL1        0.0897
     21 C          62.6003   81.0404   11.6168 C.3     1  UNL1        0.0897
     22 O          59.0041   89.5881    6.9922 O.3     1  UNL1       -0.4751
     23 C          59.7293   90.2071    5.8341 C.3     1  UNL1        0.2103
     24 C          59.0374   91.2197    4.9705 C.3     1  UNL1        0.0723
     25 C          57.7143   90.8014    5.5402 C.3     1  UNL1        0.0088
     26 C          57.0224   91.8140    4.6766 C.3     1  UNL1        0.0010
     27 C          58.3454   92.2323    4.1070 C.3     1  UNL1        0.0088
     28 C          60.3604   91.6379    4.4009 C.2     1  UNL1        0.0532
     29 O          60.4221   92.7193    3.3632 O.co2   1  UNL1       -0.5491
     30 O          61.6219   90.9748    4.8690 O.co2   1  UNL1       -0.5491
@<TRIPOS>UNITY_ATOM_ATTR
29 1
charge -1
@<TRIPOS>BOND
     1    18    17    1
     2    18    11    1
     3    11     1    1
     4     1     2   ar
     5     2     3   ar
     6     3     4   ar
     7     4     5   ar
     8     5     6   ar
     9     6    22    1
    10    22    23    1
    11    23    24    1
    12    24    28    1
    13    28    29   ar
    14    28    30   ar
    15    24    25    1
    16    25    26    1
    17    26    27    1
    18     6     7   ar
    19     7     8   ar
    20     8     9   ar
    21     9    10   ar
    22    11    12    1
    23    12    13   ar
    24    13    14   ar
    25    14    15   ar
    26    15    16   ar
    27    18    19    1
    28    19    20    1
    29    19    21    1
    30    10     1   ar
    31    16    12   ar
    32     9     4   ar
    33    27    24    1
@<TRIPOS>MOLECULE
*****
 30 33 0 0 0
SMALL
GASTEIGER

@<TRIPOS>ATOM
      1 C          63.0950   85.3373   12.8246 C.ar    1  UNL1       -0.0004
      2 C          62.4716   86.0534   11.6633 C.ar    1  UNL1       -0.0024
      3 C          62.5828   87.5453   11.5548 C.ar    1  UNL1       -0.0002
      4 C          63.3175   88.3211   12.6076 C.ar    1  UNL1        0.0030
      5 C          63.4288   89.8131   12.4990 C.ar    1  UNL1        0.0369
      6 C          64.1635   90.5889   13.5518 C.ar    1  UNL1        0.1386
      7 C          64.7870   89.8728   14.7131 C.ar    1  UNL1        0.0369
      8 C          64.6757   88.3809   14.8216 C.ar    1  UNL1        0.0031
      9 C          63.9410   87.6051   13.7688 C.ar    1  UNL1       -0.0001
     10 C          63.8297   86.1132   13.8773 C.ar    1  UNL1       -0.0024
     11 C          62.9838   83.8453   12.9331 C.3     1  UNL1        0.1240
     12 N          63.4002   82.9766   11.7833 N.ar    1  UNL1       -0.3045
     13 C          62.6936   81.7406   11.3111 C.ar    1  UNL1        0.0983
     14 C          63.4529   81.1915   10.1398 C.ar    1  UNL1        0.1193
     15 N          64.6289   82.0881    9.8882 N.ar    1  UNL1       -0.2223
     16 C          64.5962   83.1913   10.9040 C.ar    1  UNL1        0.1788
     17 C          62.0472   84.0906   15.3441 C.3     1  UNL1        0.0197
     18 C          62.4562   83.2222   14.1914 C.3     1  UNL1        0.0827
     19 N          62.3377   81.7306   14.2970 N.3     1  UNL1       -0.2696
     20 C          63.5694   80.8900   14.4601 C.3     1  UNL1        0.0897
     21 C          60.9876   81.0796   14.2396 C.3     1  UNL1        0.0897
     22 O          64.2747   92.0808   13.4433 O.3     1  UNL1       -0.4751
     23 C          65.5356   92.7029   12.9205 C.3     1  UNL1        0.2103
     24 C          66.8083   92.5923   13.7066 C.3     1  UNL1        0.0723
     25 C          66.0786   93.0143   14.9473 C.3     1  UNL1        0.0088
     26 C          67.3513   92.9037   15.7334 C.3     1  UNL1        0.0010
     27 C          68.0810   92.4818   14.4927 C.3     1  UNL1        0.0088
     28 C          67.5380   92.1704   12.4658 C.2     1  UNL1        0.0532
     29 O          68.9071   91.5663   12.5697 O.co2   1  UNL1       -0.5491
     30 O          66.8987   92.3526   11.1211 O.co2   1  UNL1       -0.5491
@<TRIPOS>UNITY_ATOM_ATTR
29 1
charge -1
@<TRIPOS>BOND
     1    18    17    1
     2    18    11    1
     3    11     1    1
     4     1     2   ar
     5     2     3   ar
     6     3     4   ar
     7     4     5   ar
     8     5     6   ar
     9     6    22    1
    10    22    23    1
    11    23    24    1
    12    24    28    1
    13    28    29   ar
    14    28    30   ar
    15    24    25    1
    16    25    26    1
    17    26    27    1
    18     6     7   ar
    19     7     8   ar
    20     8     9   ar
    21     9    10   ar
    22    11    12    1
    23    12    13   ar
    24    13    14   ar
    25    14    15   ar
    26    15    16   ar
    27    18    19    1
    28    19    20    1
    29    19    21    1
    30    10     1   ar
    31    16    12   ar
    32     9     4   ar
    33    27    24    1
