@<TRIPOS>MOLECULE
*****
 32 36 0 0 0
SMALL
GASTEIGER

@<TRIPOS>ATOM
      1 O          63.5545   87.1669   13.4677 O.2     1  UNL1       -0.2698
      2 C          62.9666   86.2538   12.4330 C.2     1  UNL1        0.2507
      3 N          62.0987   86.8134   11.3451 N.am    1  UNL1       -0.2723
      4 C          61.5108   85.9004   10.3104 C.3     1  UNL1        0.1257
      5 C          60.6428   86.4601    9.2224 C.3     1  UNL1        0.1637
      6 O          60.3630   87.9328    9.1692 O.3     1  UNL1       -0.3502
      7 C          60.9509   88.8458   10.2039 C.3     1  UNL1        0.1622
      8 C          61.8188   88.2862   11.2919 C.3     1  UNL1        0.1096
      9 C          63.2465   84.7811   12.4862 C.ar    1  UNL1        0.0738
     10 C          63.4789   84.0155   11.2174 C.ar    1  UNL1        0.0175
     11 C          63.7588   82.5429   11.2706 C.ar    1  UNL1        0.0579
     12 CL         63.9913   81.7773   10.0018 Cl      1  UNL1       -0.0822
     13 C          63.8064   81.8358   12.5926 C.ar    1  UNL1        0.0130
     14 C          63.5740   82.6013   13.8614 C.ar    1  UNL1        0.0219
     15 C          63.2940   84.0740   13.8082 C.ar    1  UNL1        0.1073
     16 N          63.0616   84.8395   15.0770 N.ar    1  UNL1       -0.1477
     17 N          61.7391   85.0411   15.7555 N.ar    1  UNL1       -0.1447
     18 C          61.9710   85.8641   16.9879 C.ar    1  UNL1        0.1446
     19 C          63.4369   86.1712   17.0712 C.ar    1  UNL1        0.1446
     20 N          64.1109   85.5379   15.8902 N.ar    1  UNL1       -0.1447
     21 C          62.4067   89.1992   12.3266 C.3     1  UNL1        0.0487
     22 C          63.3245   90.3107   11.9116 C.ar    1  UNL1       -0.0203
     23 C          63.1894   90.9261   10.5504 C.ar    1  UNL1       -0.0042
     24 C          64.1072   92.0376   10.1353 C.ar    1  UNL1       -0.0002
     25 C          65.1601   92.5337   11.0815 C.ar    1  UNL1        0.0031
     26 C          65.2953   91.9181   12.4427 C.ar    1  UNL1        0.0388
     27 C          64.3775   90.8067   12.8578 C.ar    1  UNL1       -0.0011
     28 C          66.3482   92.4141   13.3889 C.ar    1  UNL1        0.2037
     29 N          66.1035   93.1424   14.6772 N.ar    1  UNL1       -0.1829
     30 C          67.4348   93.4473   15.2975 C.ar    1  UNL1        0.3164
     31 O          68.5023   92.9075   14.3925 O.2     1  UNL1       -0.3274
     32 N          67.8308   92.2690   13.2129 N.ar    1  UNL1       -0.0554
@<TRIPOS>BOND
     1     1     2    2
     2     2     9    1
     3     9    10   ar
     4    10    11   ar
     5    11    12    1
     6    11    13   ar
     7    13    14   ar
     8    14    15   ar
     9    15    16    1
    10    16    17   ar
    11    17    18   ar
    12    18    19   ar
    13    19    20   ar
    14     2     3   am
    15     3     4    1
    16     4     5    1
    17     5     6    1
    18     6     7    1
    19     7     8    1
    20     8    21    1
    21    21    22    1
    22    22    23   ar
    23    23    24   ar
    24    24    25   ar
    25    25    26   ar
    26    26    28    1
    27    28    29   ar
    28    29    30   ar
    29    30    31   ar
    30    31    32   ar
    31    26    27   ar
    32    15     9   ar
    33    20    16   ar
    34     8     3    1
    35    27    22   ar
    36    32    28   ar
@<TRIPOS>MOLECULE
*****
 32 36 0 0 0
SMALL
GASTEIGER

@<TRIPOS>ATOM
      1 O          63.5978   87.7958   12.7414 O.2     1  UNL1       -0.2698
      2 C          62.7054   87.3550   11.6191 C.2     1  UNL1        0.2507
      3 N          61.6341   88.2722   11.1083 N.am    1  UNL1       -0.2723
      4 C          60.7417   87.8315    9.9861 C.3     1  UNL1        0.1257
      5 C          59.6704   88.7488    9.4753 C.3     1  UNL1        0.1637
      6 O          59.4914   90.1067   10.0867 O.3     1  UNL1       -0.3502
      7 C          60.3838   90.5475   11.2089 C.3     1  UNL1        0.1622
      8 C          61.4551   89.6303   11.7197 C.3     1  UNL1        0.1096
      9 C          62.8844   85.9970   11.0077 C.ar    1  UNL1        0.0738
     10 C          62.8095   85.8290    9.5190 C.ar    1  UNL1        0.0175
     11 C          62.9884   84.4710    8.9076 C.ar    1  UNL1        0.0579
     12 CL         62.9135   84.3030    7.4189 Cl      1  UNL1       -0.0822
     13 C          63.2424   83.2811    9.7848 C.ar    1  UNL1        0.0130
     14 C          63.3174   83.4492   11.2735 C.ar    1  UNL1        0.0219
     15 C          63.1384   84.8071   11.8849 C.ar    1  UNL1        0.1073
     16 N          63.2134   84.9751   13.3736 N.ar    1  UNL1       -0.1477
     17 N          62.0906   84.7544   14.3435 N.ar    1  UNL1       -0.1447
     18 C          62.6076   85.0362   15.7231 C.ar    1  UNL1        0.1446
     19 C          64.0499   85.4312   15.6058 C.ar    1  UNL1        0.1446
     20 N          64.4243   85.3935   14.1538 N.ar    1  UNL1       -0.1447
     21 C          62.3475   90.0710   12.8420 C.3     1  UNL1        0.0487
     22 C          63.5552   90.9125   12.5536 C.ar    1  UNL1       -0.0203
     23 C          63.8067   91.4113   11.1615 C.ar    1  UNL1       -0.0042
     24 C          65.0145   92.2529   10.8731 C.ar    1  UNL1       -0.0002
     25 C          65.9708   92.5955   11.9767 C.ar    1  UNL1        0.0031
     26 C          65.7193   92.0966   13.3689 C.ar    1  UNL1        0.0388
     27 C          64.5115   91.2551   13.6573 C.ar    1  UNL1       -0.0011
     28 C          66.6756   92.4392   14.4725 C.ar    1  UNL1        0.2037
     29 N          68.1544   92.6430   14.3262 N.ar    1  UNL1       -0.1829
     30 C          68.7138   92.9680   15.6796 C.ar    1  UNL1        0.3164
     31 O          67.5806   92.9650   16.6623 O.2     1  UNL1       -0.3274
     32 N          66.3209   92.6382   15.9164 N.ar    1  UNL1       -0.0554
@<TRIPOS>BOND
     1     1     2    2
     2     2     9    1
     3     9    10   ar
     4    10    11   ar
     5    11    12    1
     6    11    13   ar
     7    13    14   ar
     8    14    15   ar
     9    15    16    1
    10    16    17   ar
    11    17    18   ar
    12    18    19   ar
    13    19    20   ar
    14     2     3   am
    15     3     4    1
    16     4     5    1
    17     5     6    1
    18     6     7    1
    19     7     8    1
    20     8    21    1
    21    21    22    1
    22    22    23   ar
    23    23    24   ar
    24    24    25   ar
    25    25    26   ar
    26    26    28    1
    27    28    29   ar
    28    29    30   ar
    29    30    31   ar
    30    31    32   ar
    31    26    27   ar
    32    15     9   ar
    33    20    16   ar
    34     8     3    1
    35    27    22   ar
    36    32    28   ar
@<TRIPOS>MOLECULE
*****
 32 36 0 0 0
SMALL
GASTEIGER

@<TRIPOS>ATOM
      1 O          62.6693   90.0338   11.4681 O.2     1  UNL1       -0.2698
      2 C          62.6676   88.5345   11.5131 C.2     1  UNL1        0.2507
      3 N          63.3071   87.8180   12.6654 N.am    1  UNL1       -0.2723
      4 C          63.3054   86.3187   12.7104 C.3     1  UNL1        0.1257
      5 C          63.9449   85.6022   13.8627 C.3     1  UNL1        0.1637
      6 O          64.5862   86.3850   14.9699 O.3     1  UNL1       -0.3502
      7 C          64.5879   87.8844   14.9248 C.3     1  UNL1        0.1622
      8 C          63.9484   88.6008   13.7726 C.3     1  UNL1        0.1096
      9 C          62.0263   87.7516   10.4059 C.ar    1  UNL1        0.0738
     10 C          62.8333   86.7563    9.6261 C.ar    1  UNL1        0.0175
     11 C          62.1921   85.9735    8.5189 C.ar    1  UNL1        0.0579
     12 CL         62.9992   84.9782    7.7391 Cl      1  UNL1       -0.0822
     13 C          60.7438   86.1859    8.1914 C.ar    1  UNL1        0.0130
     14 C          59.9368   87.1812    8.9712 C.ar    1  UNL1        0.0219
     15 C          60.5780   87.9640   10.0784 C.ar    1  UNL1        0.1073
     16 N          59.7709   88.9593   10.8582 N.ar    1  UNL1       -0.1477
     17 N          59.5686   90.4025   10.5029 N.ar    1  UNL1       -0.1447
     18 C          58.6971   91.0213   11.5553 C.ar    1  UNL1        0.1446
     19 C          58.3607   89.9605   12.5611 C.ar    1  UNL1        0.1446
     20 N          59.0244   88.6862   12.1302 N.ar    1  UNL1       -0.1447
     21 C          63.9501   90.1002   13.7276 C.3     1  UNL1        0.0487
     22 C          65.2499   90.8479   13.6915 C.ar    1  UNL1       -0.0203
     23 C          66.1392   90.8647   14.8993 C.ar    1  UNL1       -0.0042
     24 C          67.4391   91.6125   14.8633 C.ar    1  UNL1       -0.0002
     25 C          67.8496   92.3435   13.6194 C.ar    1  UNL1        0.0031
     26 C          66.9602   92.3267   12.4116 C.ar    1  UNL1        0.0388
     27 C          65.6604   91.5789   12.4477 C.ar    1  UNL1       -0.0011
     28 C          67.3707   93.0576   11.1678 C.ar    1  UNL1        0.2037
     29 N          66.9258   94.4325   10.7657 N.ar    1  UNL1       -0.1829
     30 C          67.5783   94.7667    9.4570 C.ar    1  UNL1        0.3164
     31 O          68.4264   93.5983    9.0503 O.2     1  UNL1       -0.3274
     32 N          68.2982   92.5420   10.1075 N.ar    1  UNL1       -0.0554
@<TRIPOS>BOND
     1     1     2    2
     2     2     9    1
     3     9    10   ar
     4    10    11   ar
     5    11    12    1
     6    11    13   ar
     7    13    14   ar
     8    14    15   ar
     9    15    16    1
    10    16    17   ar
    11    17    18   ar
    12    18    19   ar
    13    19    20   ar
    14     2     3   am
    15     3     4    1
    16     4     5    1
    17     5     6    1
    18     6     7    1
    19     7     8    1
    20     8    21    1
    21    21    22    1
    22    22    23   ar
    23    23    24   ar
    24    24    25   ar
    25    25    26   ar
    26    26    28    1
    27    28    29   ar
    28    29    30   ar
    29    30    31   ar
    30    31    32   ar
    31    26    27   ar
    32    15     9   ar
    33    20    16   ar
    34     8     3    1
    35    27    22   ar
    36    32    28   ar
@<TRIPOS>MOLECULE
*****
 32 36 0 0 0
SMALL
GASTEIGER

@<TRIPOS>ATOM
      1 O          63.4223   87.5203   13.1482 O.2     1  UNL1       -0.2698
      2 C          62.7410   87.3345   11.8248 C.2     1  UNL1        0.2507
      3 N          61.9019   88.4379   11.2517 N.am    1  UNL1       -0.2723
      4 C          61.2206   88.2520    9.9283 C.3     1  UNL1        0.1257
      5 C          60.3815   89.3555    9.3553 C.3     1  UNL1        0.1637
      6 O          60.2237   90.6447   10.1056 O.3     1  UNL1       -0.3502
      7 C          60.9050   90.8305   11.4289 C.3     1  UNL1        0.1622
      8 C          61.7441   89.7271   12.0020 C.3     1  UNL1        0.1096
      9 C          62.8988   86.0452   11.0745 C.ar    1  UNL1        0.0738
     10 C          62.8081   86.0328    9.5773 C.ar    1  UNL1        0.0175
     11 C          62.9660   84.7436    8.8270 C.ar    1  UNL1        0.0579
     12 CL         62.8753   84.7313    7.3297 Cl      1  UNL1       -0.0822
     13 C          63.2144   83.4668    9.5738 C.ar    1  UNL1        0.0130
     14 C          63.3051   83.4791   11.0711 C.ar    1  UNL1        0.0219
     15 C          63.1473   84.7683   11.8214 C.ar    1  UNL1        0.1073
     16 N          63.2380   84.7807   13.3186 N.ar    1  UNL1       -0.1477
     17 N          62.0835   84.6955   14.2725 N.ar    1  UNL1       -0.1447
     18 C          62.6311   84.7426   15.6682 C.ar    1  UNL1        0.1446
     19 C          64.1239   84.8569   15.5769 C.ar    1  UNL1        0.1446
     20 N          64.4990   84.8805   14.1247 N.ar    1  UNL1       -0.1447
     21 C          62.4254   89.9130   13.3254 C.3     1  UNL1        0.0487
     22 C          63.7570   90.5999   13.3935 C.ar    1  UNL1       -0.0203
     23 C          64.6126   90.4576   14.6173 C.ar    1  UNL1       -0.0042
     24 C          65.9443   91.1446   14.6854 C.ar    1  UNL1       -0.0002
     25 C          66.4205   91.9739   13.5297 C.ar    1  UNL1        0.0031
     26 C          65.5648   92.1161   12.3059 C.ar    1  UNL1        0.0388
     27 C          64.2331   91.4292   12.2378 C.ar    1  UNL1       -0.0011
     28 C          66.0409   92.9454   11.1502 C.ar    1  UNL1        0.2037
     29 N          67.1741   92.6048   10.2283 N.ar    1  UNL1       -0.1829
     30 C          67.3010   93.7098    9.2218 C.ar    1  UNL1        0.3164
     31 O          66.2463   94.7333    9.5217 O.2     1  UNL1       -0.3274
     32 N          65.4674   94.2609   10.7135 N.ar    1  UNL1       -0.0554
@<TRIPOS>BOND
     1     1     2    2
     2     2     9    1
     3     9    10   ar
     4    10    11   ar
     5    11    12    1
     6    11    13   ar
     7    13    14   ar
     8    14    15   ar
     9    15    16    1
    10    16    17   ar
    11    17    18   ar
    12    18    19   ar
    13    19    20   ar
    14     2     3   am
    15     3     4    1
    16     4     5    1
    17     5     6    1
    18     6     7    1
    19     7     8    1
    20     8    21    1
    21    21    22    1
    22    22    23   ar
    23    23    24   ar
    24    24    25   ar
    25    25    26   ar
    26    26    28    1
    27    28    29   ar
    28    29    30   ar
    29    30    31   ar
    30    31    32   ar
    31    26    27   ar
    32    15     9   ar
    33    20    16   ar
    34     8     3    1
    35    27    22   ar
    36    32    28   ar
@<TRIPOS>MOLECULE
*****
 32 36 0 0 0
SMALL
GASTEIGER

@<TRIPOS>ATOM
      1 O          63.8305   87.6370   14.3084 O.2     1  UNL1       -0.2698
      2 C          63.3295   87.0025   13.0450 C.2     1  UNL1        0.2507
      3 N          62.7772   87.8582   11.9438 N.am    1  UNL1       -0.2723
      4 C          62.2762   87.2237   10.6803 C.3     1  UNL1        0.1257
      5 C          61.7239   88.0795    9.5791 C.3     1  UNL1        0.1637
      6 O          61.6726   89.5698    9.7414 O.3     1  UNL1       -0.3502
      7 C          62.1736   90.2043   11.0049 C.3     1  UNL1        0.1622
      8 C          62.7259   89.3486   12.1060 C.3     1  UNL1        0.1096
      9 C          63.3808   85.5121   12.8827 C.ar    1  UNL1        0.0738
     10 C          63.6202   84.9129   11.5286 C.ar    1  UNL1        0.0175
     11 C          63.6715   83.4227   11.3663 C.ar    1  UNL1        0.0579
     12 CL         63.9109   82.8235   10.0121 Cl      1  UNL1       -0.0822
     13 C          63.4835   82.5316   12.5581 C.ar    1  UNL1        0.0130
     14 C          63.2442   83.1307   13.9123 C.ar    1  UNL1        0.0219
     15 C          63.1928   84.6210   14.0746 C.ar    1  UNL1        0.1073
     16 N          62.9535   85.2202   15.4287 N.ar    1  UNL1       -0.1477
     17 N          61.6153   85.4653   16.0604 N.ar    1  UNL1       -0.1447
     18 C          61.8450   86.0761   17.4110 C.ar    1  UNL1        0.1446
     19 C          63.3253   86.2084   17.6141 C.ar    1  UNL1        0.1446
     20 N          64.0104   85.6795   16.3890 N.ar    1  UNL1       -0.1447
     21 C          63.2269   89.9831   13.3695 C.3     1  UNL1        0.0487
     22 C          64.5032   90.7710   13.3581 C.ar    1  UNL1       -0.0203
     23 C          65.4764   90.6386   14.4918 C.ar    1  UNL1       -0.0042
     24 C          66.7528   91.4265   14.4804 C.ar    1  UNL1       -0.0002
     25 C          67.0559   92.3468   13.3354 C.ar    1  UNL1        0.0031
     26 C          66.0826   92.4792   12.2017 C.ar    1  UNL1        0.0388
     27 C          64.8063   91.6913   12.2131 C.ar    1  UNL1       -0.0011
     28 C          66.3857   93.3995   11.0566 C.ar    1  UNL1        0.2037
     29 N          67.5524   93.2876   10.1205 N.ar    1  UNL1       -0.1829
     30 C          67.4631   94.4123    9.1319 C.ar    1  UNL1        0.3164
     31 O          66.2412   95.2193    9.4571 O.2     1  UNL1       -0.3274
     32 N          65.5753   94.5934   10.6466 N.ar    1  UNL1       -0.0554
@<TRIPOS>BOND
     1     1     2    2
     2     2     9    1
     3     9    10   ar
     4    10    11   ar
     5    11    12    1
     6    11    13   ar
     7    13    14   ar
     8    14    15   ar
     9    15    16    1
    10    16    17   ar
    11    17    18   ar
    12    18    19   ar
    13    19    20   ar
    14     2     3   am
    15     3     4    1
    16     4     5    1
    17     5     6    1
    18     6     7    1
    19     7     8    1
    20     8    21    1
    21    21    22    1
    22    22    23   ar
    23    23    24   ar
    24    24    25   ar
    25    25    26   ar
    26    26    28    1
    27    28    29   ar
    28    29    30   ar
    29    30    31   ar
    30    31    32   ar
    31    26    27   ar
    32    15     9   ar
    33    20    16   ar
    34     8     3    1
    35    27    22   ar
    36    32    28   ar
@<TRIPOS>MOLECULE
*****
 32 36 0 0 0
SMALL
GASTEIGER

@<TRIPOS>ATOM
      1 O          63.6714   89.0753   12.2034 O.2     1  UNL1       -0.2698
      2 C          63.4347   87.9906   13.2121 C.2     1  UNL1        0.2507
      3 N          63.3694   88.3258   14.6726 N.am    1  UNL1       -0.2723
      4 C          63.1327   87.2411   15.6813 C.3     1  UNL1        0.1257
      5 C          63.0674   87.5765   17.1419 C.3     1  UNL1        0.1637
      6 O          63.2390   88.9964   17.5938 O.3     1  UNL1       -0.3502
      7 C          63.4757   90.0811   16.5852 C.3     1  UNL1        0.1622
      8 C          63.5409   89.7459   15.1246 C.3     1  UNL1        0.1096
      9 C          63.2631   86.5706   12.7601 C.ar    1  UNL1        0.0738
     10 C          64.0153   85.4691   13.4463 C.ar    1  UNL1        0.0175
     11 C          63.8438   84.0491   12.9944 C.ar    1  UNL1        0.0579
     12 CL         64.5960   82.9476   13.6806 Cl      1  UNL1       -0.0822
     13 C          62.9202   83.7307   11.8562 C.ar    1  UNL1        0.0130
     14 C          62.1680   84.8322   11.1700 C.ar    1  UNL1        0.0219
     15 C          62.3395   86.2521   11.6219 C.ar    1  UNL1        0.1073
     16 N          61.5873   87.3536   10.9357 N.ar    1  UNL1       -0.1477
     17 N          61.8857   87.9105    9.5753 N.ar    1  UNL1       -0.1447
     18 C          60.8875   88.9927    9.2882 C.ar    1  UNL1        0.1446
     19 C          59.9722   89.1047   10.4712 C.ar    1  UNL1        0.1446
     20 N          60.4047   88.0917   11.4894 N.ar    1  UNL1       -0.1447
     21 C          63.7777   90.8306   14.1160 C.3     1  UNL1        0.0487
     22 C          65.1695   91.3299   13.8643 C.ar    1  UNL1       -0.0203
     23 C          66.2079   91.2318   14.9423 C.ar    1  UNL1       -0.0042
     24 C          67.5998   91.7311   14.6907 C.ar    1  UNL1       -0.0002
     25 C          67.9533   92.3286   13.3610 C.ar    1  UNL1        0.0031
     26 C          66.9149   92.4268   12.2830 C.ar    1  UNL1        0.0388
     27 C          65.5230   91.9274   12.5346 C.ar    1  UNL1       -0.0011
     28 C          67.2684   93.0243   10.9533 C.ar    1  UNL1        0.2037
     29 N          67.1060   94.4632   10.5621 N.ar    1  UNL1       -0.1829
     30 C          67.5836   94.6160    9.1484 C.ar    1  UNL1        0.3164
     31 O          68.0411   93.2715    8.6658 O.2     1  UNL1       -0.3274
     32 N          67.8463   92.2876    9.7813 N.ar    1  UNL1       -0.0554
@<TRIPOS>BOND
     1     1     2    2
     2     2     9    1
     3     9    10   ar
     4    10    11   ar
     5    11    12    1
     6    11    13   ar
     7    13    14   ar
     8    14    15   ar
     9    15    16    1
    10    16    17   ar
    11    17    18   ar
    12    18    19   ar
    13    19    20   ar
    14     2     3   am
    15     3     4    1
    16     4     5    1
    17     5     6    1
    18     6     7    1
    19     7     8    1
    20     8    21    1
    21    21    22    1
    22    22    23   ar
    23    23    24   ar
    24    24    25   ar
    25    25    26   ar
    26    26    28    1
    27    28    29   ar
    28    29    30   ar
    29    30    31   ar
    30    31    32   ar
    31    26    27   ar
    32    15     9   ar
    33    20    16   ar
    34     8     3    1
    35    27    22   ar
    36    32    28   ar
@<TRIPOS>MOLECULE
*****
 32 36 0 0 0
SMALL
GASTEIGER

@<TRIPOS>ATOM
      1 O          62.9072   87.6765   12.7931 O.2     1  UNL1       -0.2698
      2 C          62.8068   88.8953   11.9244 C.2     1  UNL1        0.2507
      3 N          61.8385   88.9223   10.7792 N.am    1  UNL1       -0.2723
      4 C          61.7381   90.1411    9.9105 C.3     1  UNL1        0.1257
      5 C          60.7697   90.1680    8.7652 C.3     1  UNL1        0.1637
      6 O          59.9018   88.9763    8.4886 O.3     1  UNL1       -0.3502
      7 C          60.0022   87.7576    9.3573 C.3     1  UNL1        0.1622
      8 C          60.9706   87.7306   10.5025 C.3     1  UNL1        0.1096
      9 C          63.6748   90.0871   12.2010 C.ar    1  UNL1        0.0738
     10 C          64.0411   91.0227   11.0873 C.ar    1  UNL1        0.0175
     11 C          64.9090   92.2144   11.3639 C.ar    1  UNL1        0.0579
     12 CL         65.2754   93.1501   10.2502 Cl      1  UNL1       -0.0822
     13 C          65.4106   92.4705   12.7541 C.ar    1  UNL1        0.0130
     14 C          65.0442   91.5348   13.8678 C.ar    1  UNL1        0.0219
     15 C          64.1763   90.3431   13.5913 C.ar    1  UNL1        0.1073
     16 N          63.8099   89.4075   14.7050 N.ar    1  UNL1       -0.1477
     17 N          62.8468   89.6961   15.8181 N.ar    1  UNL1       -0.1447
     18 C          62.7840   88.4859   16.7022 C.ar    1  UNL1        0.1446
     19 C          63.7083   87.4493   16.1354 C.ar    1  UNL1        0.1446
     20 N          64.3423   88.0189   14.9011 N.ar    1  UNL1       -0.1447
     21 C          61.0710   86.5118   11.3712 C.3     1  UNL1        0.0487
     22 C          61.9723   85.3803   10.9746 C.ar    1  UNL1       -0.0203
     23 C          62.6969   85.4234    9.6620 C.ar    1  UNL1       -0.0042
     24 C          63.5983   84.2919    9.2653 C.ar    1  UNL1       -0.0002
     25 C          63.7751   83.1174   10.1814 C.ar    1  UNL1        0.0031
     26 C          63.0504   83.0743   11.4941 C.ar    1  UNL1        0.0388
     27 C          62.1491   84.2058   11.8907 C.ar    1  UNL1       -0.0011
     28 C          63.2272   81.8998   12.4102 C.ar    1  UNL1        0.2037
     29 N          62.5784   80.5562   12.2564 N.ar    1  UNL1       -0.1829
     30 C          63.0340   79.6886   13.3921 C.ar    1  UNL1        0.3164
     31 O          63.9645   80.4961   14.2478 O.2     1  UNL1       -0.3274
     32 N          64.0839   81.8627   13.6410 N.ar    1  UNL1       -0.0554
@<TRIPOS>BOND
     1     1     2    2
     2     2     9    1
     3     9    10   ar
     4    10    11   ar
     5    11    12    1
     6    11    13   ar
     7    13    14   ar
     8    14    15   ar
     9    15    16    1
    10    16    17   ar
    11    17    18   ar
    12    18    19   ar
    13    19    20   ar
    14     2     3   am
    15     3     4    1
    16     4     5    1
    17     5     6    1
    18     6     7    1
    19     7     8    1
    20     8    21    1
    21    21    22    1
    22    22    23   ar
    23    23    24   ar
    24    24    25   ar
    25    25    26   ar
    26    26    28    1
    27    28    29   ar
    28    29    30   ar
    29    30    31   ar
    30    31    32   ar
    31    26    27   ar
    32    15     9   ar
    33    20    16   ar
    34     8     3    1
    35    27    22   ar
    36    32    28   ar
