@<TRIPOS>MOLECULE
*****
 33 37 0 0 0
SMALL
GASTEIGER

@<TRIPOS>ATOM
      1 O          63.5202   87.4997   13.0002 O.2     1  UNL1       -0.2699
      2 C          62.7463   86.8895   11.8694 C.2     1  UNL1        0.2506
      3 N          61.7527   87.7163   11.1085 N.am    1  UNL1       -0.2723
      4 C          60.9788   87.1062    9.9776 C.3     1  UNL1        0.1257
      5 C          59.9851   87.9331    9.2166 C.3     1  UNL1        0.1637
      6 O          59.7654   89.3700    9.5866 O.3     1  UNL1       -0.3502
      7 C          60.5393   89.9801   10.7175 C.3     1  UNL1        0.1622
      8 C          61.5329   89.1533   11.4784 C.3     1  UNL1        0.1097
      9 C          62.9661   85.4525   11.4994 C.ar    1  UNL1        0.0730
     10 C          63.0125   85.0484   10.0556 C.ar    1  UNL1        0.0070
     11 C          63.2323   83.6115    9.6857 C.ar    1  UNL1        0.0116
     12 C          63.4057   82.5787   10.7595 C.ar    1  UNL1        0.0592
     13 CL         63.6255   81.1417   10.3895 Cl      1  UNL1       -0.0822
     14 C          63.3593   82.9828   12.2033 C.ar    1  UNL1        0.0324
     15 C          63.1396   84.4197   12.5733 C.ar    1  UNL1        0.1081
     16 N          63.0932   84.8238   14.0171 N.ar    1  UNL1       -0.1476
     17 N          64.2404   85.3629   14.8190 N.ar    1  UNL1       -0.1447
     18 C          63.7477   85.6320   16.2100 C.ar    1  UNL1        0.1446
     19 C          62.2959   85.2593   16.2677 C.ar    1  UNL1        0.1446
     20 N          61.8914   84.7598   14.9124 N.ar    1  UNL1       -0.1447
     21 C          62.3068   89.7635   12.6093 C.3     1  UNL1        0.0510
     22 C          63.4358   90.7081   12.3218 C.ar    1  UNL1        0.0071
     23 C          64.3276   91.1720   13.4351 C.ar    1  UNL1        0.0012
     24 C          65.4567   92.1167   13.1477 C.ar    1  UNL1        0.0389
     25 C          65.6941   92.5975   11.7468 C.ar    1  UNL1        0.0054
     26 C          64.8023   92.1337   10.6334 C.ar    1  UNL1        0.0294
     27 C          63.6732   91.1890   10.9209 C.ar    1  UNL1        0.1362
     28 F          62.7815   90.7252    9.8075 F       1  UNL1       -0.2045
     29 C          66.3484   92.5805   14.2610 C.ar    1  UNL1        0.2037
     30 N          67.8113   92.8922   14.1474 N.ar    1  UNL1       -0.1829
     31 C          68.3009   93.3184   15.4996 C.ar    1  UNL1        0.3164
     32 O          67.1405   93.2702   16.4491 O.2     1  UNL1       -0.3274
     33 N          65.9339   92.8142   15.6836 N.ar    1  UNL1       -0.0554
@<TRIPOS>BOND
     1     1     2    2
     2     2     9    1
     3     9    10   ar
     4    10    11   ar
     5    11    12   ar
     6    12    13    1
     7    12    14   ar
     8    14    15   ar
     9    15    16    1
    10    16    17   ar
    11    17    18   ar
    12    18    19   ar
    13    19    20   ar
    14     2     3   am
    15     3     4    1
    16     4     5    1
    17     5     6    1
    18     6     7    1
    19     7     8    1
    20     8    21    1
    21    21    22    1
    22    22    23   ar
    23    23    24   ar
    24    24    29    1
    25    29    30   ar
    26    30    31   ar
    27    31    32   ar
    28    32    33   ar
    29    24    25   ar
    30    25    26   ar
    31    26    27   ar
    32    27    28    1
    33    15     9   ar
    34    20    16   ar
    35     8     3    1
    36    27    22   ar
    37    33    29   ar
@<TRIPOS>MOLECULE
*****
 33 37 0 0 0
SMALL
GASTEIGER

@<TRIPOS>ATOM
      1 O          63.5702   87.4920   13.5870 O.2     1  UNL1       -0.2699
      2 C          62.9959   87.0908   12.2607 C.2     1  UNL1        0.2506
      3 N          62.3189   88.1129   11.3964 N.am    1  UNL1       -0.2723
      4 C          61.7446   87.7116   10.0701 C.3     1  UNL1        0.1257
      5 C          61.0676   88.7338    9.2058 C.3     1  UNL1        0.1637
      6 O          60.9650   90.1572    9.6679 O.3     1  UNL1       -0.3502
      7 C          61.5394   90.5584   10.9942 C.3     1  UNL1        0.1622
      8 C          62.2163   89.5363   11.8585 C.3     1  UNL1        0.1097
      9 C          63.0985   85.6673   11.7987 C.ar    1  UNL1        0.0730
     10 C          63.1285   85.3553   10.3318 C.ar    1  UNL1        0.0070
     11 C          63.2311   83.9320    9.8697 C.ar    1  UNL1        0.0116
     12 C          63.3037   82.8207   10.8745 C.ar    1  UNL1        0.0592
     13 CL         63.4063   81.3972   10.4125 Cl      1  UNL1       -0.0822
     14 C          63.2737   83.1327   12.3414 C.ar    1  UNL1        0.0324
     15 C          63.1711   84.5560   12.8035 C.ar    1  UNL1        0.1081
     16 N          63.1411   84.8681   14.2703 N.ar    1  UNL1       -0.1476
     17 N          61.9276   84.8461   15.1518 N.ar    1  UNL1       -0.1447
     18 C          62.3558   85.2213   16.5396 C.ar    1  UNL1        0.1446
     19 C          63.8340   85.4752   16.5158 C.ar    1  UNL1        0.1446
     20 N          64.3193   85.2569   15.1133 N.ar    1  UNL1       -0.1447
     21 C          62.7907   89.9375   13.1848 C.3     1  UNL1        0.0510
     22 C          64.0989   90.6688   13.2453 C.ar    1  UNL1        0.0071
     23 C          64.5129   91.5601   12.1122 C.ar    1  UNL1        0.0012
     24 C          65.8213   92.2914   12.1726 C.ar    1  UNL1        0.0389
     25 C          66.7155   92.1313   13.3662 C.ar    1  UNL1        0.0054
     26 C          66.3014   91.2398   14.4993 C.ar    1  UNL1        0.0294
     27 C          64.9932   90.5086   14.4389 C.ar    1  UNL1        0.1362
     28 F          64.5792   89.6172   15.5720 F       1  UNL1       -0.2045
     29 C          66.2353   93.1828   11.0395 C.ar    1  UNL1        0.2037
     30 N          67.4472   93.0034   10.1740 N.ar    1  UNL1       -0.1829
     31 C          67.4710   94.1198    9.1725 C.ar    1  UNL1        0.3164
     32 O          66.2737   94.9892    9.4190 O.2     1  UNL1       -0.3274
     33 N          65.5100   94.4101   10.5728 N.ar    1  UNL1       -0.0554
@<TRIPOS>BOND
     1     1     2    2
     2     2     9    1
     3     9    10   ar
     4    10    11   ar
     5    11    12   ar
     6    12    13    1
     7    12    14   ar
     8    14    15   ar
     9    15    16    1
    10    16    17   ar
    11    17    18   ar
    12    18    19   ar
    13    19    20   ar
    14     2     3   am
    15     3     4    1
    16     4     5    1
    17     5     6    1
    18     6     7    1
    19     7     8    1
    20     8    21    1
    21    21    22    1
    22    22    23   ar
    23    23    24   ar
    24    24    29    1
    25    29    30   ar
    26    30    31   ar
    27    31    32   ar
    28    32    33   ar
    29    24    25   ar
    30    25    26   ar
    31    26    27   ar
    32    27    28    1
    33    15     9   ar
    34    20    16   ar
    35     8     3    1
    36    27    22   ar
    37    33    29   ar
@<TRIPOS>MOLECULE
*****
 33 37 0 0 0
SMALL
GASTEIGER

@<TRIPOS>ATOM
      1 O          62.9674   87.7962   12.5871 O.2     1  UNL1       -0.2699
      2 C          62.7361   88.9230   11.6243 C.2     1  UNL1        0.2506
      3 N          61.6953   88.7917   10.5522 N.am    1  UNL1       -0.2723
      4 C          61.4639   89.9185    9.5895 C.3     1  UNL1        0.1257
      5 C          60.4230   89.7872    8.5174 C.3     1  UNL1        0.1637
      6 O          59.6136   88.5291    8.4080 O.3     1  UNL1       -0.3502
      7 C          59.8449   87.4024    9.3707 C.3     1  UNL1        0.1622
      8 C          60.8857   87.5336   10.4428 C.3     1  UNL1        0.1097
      9 C          63.5456   90.1811   11.7338 C.ar    1  UNL1        0.0730
     10 C          63.8293   90.9993   10.5090 C.ar    1  UNL1        0.0070
     11 C          64.6388   92.2574   10.6183 C.ar    1  UNL1        0.0116
     12 C          65.1646   92.6972   11.9525 C.ar    1  UNL1        0.0592
     13 CL         65.9741   93.9553   12.0619 Cl      1  UNL1       -0.0822
     14 C          64.8809   91.8790   13.1773 C.ar    1  UNL1        0.0324
     15 C          64.0715   90.6210   13.0679 C.ar    1  UNL1        0.1081
     16 N          63.7878   89.8028   14.2927 N.ar    1  UNL1       -0.1476
     17 N          62.7417   90.0969   15.3267 N.ar    1  UNL1       -0.1447
     18 C          62.8078   89.0227   16.3716 C.ar    1  UNL1        0.1446
     19 C          63.8948   88.0647   15.9833 C.ar    1  UNL1        0.1446
     20 N          64.5004   88.5468   14.6985 N.ar    1  UNL1       -0.1447
     21 C          61.1171   86.4068   11.4056 C.3     1  UNL1        0.0510
     22 C          62.0223   85.2719   11.0282 C.ar    1  UNL1        0.0071
     23 C          62.1608   84.0884   11.9392 C.ar    1  UNL1        0.0012
     24 C          63.0660   82.9533   11.5619 C.ar    1  UNL1        0.0389
     25 C          63.8326   83.0018   10.2735 C.ar    1  UNL1        0.0054
     26 C          63.6941   84.1854    9.3625 C.ar    1  UNL1        0.0294
     27 C          62.7889   85.3204    9.7398 C.ar    1  UNL1        0.1362
     28 F          62.6503   86.5039    8.8288 F       1  UNL1       -0.2045
     29 C          63.2046   81.7698   12.4729 C.ar    1  UNL1        0.2037
     30 N          62.4932   80.4572   12.3276 N.ar    1  UNL1       -0.1829
     31 C          62.9278   79.5672   13.4541 C.ar    1  UNL1        0.3164
     32 O          63.9078   80.3297   14.2957 O.2     1  UNL1       -0.3274
     33 N          64.0788   81.6910   13.6893 N.ar    1  UNL1       -0.0554
@<TRIPOS>BOND
     1     1     2    2
     2     2     9    1
     3     9    10   ar
     4    10    11   ar
     5    11    12   ar
     6    12    13    1
     7    12    14   ar
     8    14    15   ar
     9    15    16    1
    10    16    17   ar
    11    17    18   ar
    12    18    19   ar
    13    19    20   ar
    14     2     3   am
    15     3     4    1
    16     4     5    1
    17     5     6    1
    18     6     7    1
    19     7     8    1
    20     8    21    1
    21    21    22    1
    22    22    23   ar
    23    23    24   ar
    24    24    29    1
    25    29    30   ar
    26    30    31   ar
    27    31    32   ar
    28    32    33   ar
    29    24    25   ar
    30    25    26   ar
    31    26    27   ar
    32    27    28    1
    33    15     9   ar
    34    20    16   ar
    35     8     3    1
    36    27    22   ar
    37    33    29   ar
@<TRIPOS>MOLECULE
*****
 33 37 0 0 0
SMALL
GASTEIGER

@<TRIPOS>ATOM
      1 O          63.4158   88.1254   11.8238 O.2     1  UNL1       -0.2699
      2 C          63.4452   87.4651   13.1704 C.2     1  UNL1        0.2506
      3 N          63.3585   88.2968   14.4156 N.am    1  UNL1       -0.2723
      4 C          63.3879   87.6365   15.7621 C.3     1  UNL1        0.1257
      5 C          63.3012   88.4683   17.0074 C.3     1  UNL1        0.1637
      6 O          63.1851   89.9604   16.9061 O.3     1  UNL1       -0.3502
      7 C          63.1557   90.6206   15.5596 C.3     1  UNL1        0.1622
      8 C          63.2424   89.7889   14.3144 C.3     1  UNL1        0.1097
      9 C          63.5613   85.9729   13.2716 C.ar    1  UNL1        0.0730
     10 C          64.3401   85.3558   14.3953 C.ar    1  UNL1        0.0070
     11 C          64.4562   83.8638   14.4966 C.ar    1  UNL1        0.0116
     12 C          63.7935   82.9889   13.4742 C.ar    1  UNL1        0.0592
     13 CL         63.9096   81.4968   13.5755 Cl      1  UNL1       -0.0822
     14 C          63.0147   83.6060   12.3506 C.ar    1  UNL1        0.0324
     15 C          62.8986   85.0980   12.2493 C.ar    1  UNL1        0.1081
     16 N          62.1198   85.7151   11.1256 N.ar    1  UNL1       -0.1476
     17 N          62.4378   85.5989    9.6643 N.ar    1  UNL1       -0.1447
     18 C          61.4007   86.3688    8.9015 C.ar    1  UNL1        0.1446
     19 C          60.4417   86.9608    9.8914 C.ar    1  UNL1        0.1446
     20 N          60.8861   86.5568   11.2659 N.ar    1  UNL1       -0.1447
     21 C          63.2130   90.4492   12.9678 C.3     1  UNL1        0.0510
     22 C          64.3489   91.3302   12.5396 C.ar    1  UNL1        0.0071
     23 C          65.4390   91.6737   13.5109 C.ar    1  UNL1        0.0012
     24 C          66.5751   92.5547   13.0827 C.ar    1  UNL1        0.0389
     25 C          66.6208   93.0923   11.6831 C.ar    1  UNL1        0.0054
     26 C          65.5306   92.7488   10.7117 C.ar    1  UNL1        0.0294
     27 C          64.3947   91.8678   11.1400 C.ar    1  UNL1        0.1362
     28 F          63.3045   91.5244   10.1686 F       1  UNL1       -0.2045
     29 C          67.6652   92.8982   14.0541 C.ar    1  UNL1        0.2037
     30 N          67.5337   93.8030   15.2432 N.ar    1  UNL1       -0.1829
     31 C          68.8655   93.8611   15.9309 C.ar    1  UNL1        0.3164
     32 O          69.8201   92.9923   15.1668 O.2     1  UNL1       -0.3274
     33 N          69.0783   92.3972   14.0069 N.ar    1  UNL1       -0.0554
@<TRIPOS>BOND
     1     1     2    2
     2     2     9    1
     3     9    10   ar
     4    10    11   ar
     5    11    12   ar
     6    12    13    1
     7    12    14   ar
     8    14    15   ar
     9    15    16    1
    10    16    17   ar
    11    17    18   ar
    12    18    19   ar
    13    19    20   ar
    14     2     3   am
    15     3     4    1
    16     4     5    1
    17     5     6    1
    18     6     7    1
    19     7     8    1
    20     8    21    1
    21    21    22    1
    22    22    23   ar
    23    23    24   ar
    24    24    29    1
    25    29    30   ar
    26    30    31   ar
    27    31    32   ar
    28    32    33   ar
    29    24    25   ar
    30    25    26   ar
    31    26    27   ar
    32    27    28    1
    33    15     9   ar
    34    20    16   ar
    35     8     3    1
    36    27    22   ar
    37    33    29   ar
@<TRIPOS>MOLECULE
*****
 33 37 0 0 0
SMALL
GASTEIGER

@<TRIPOS>ATOM
      1 O          65.8122   90.9179   13.9793 O.2     1  UNL1       -0.2699
      2 C          65.0573   91.3390   12.7535 C.2     1  UNL1        0.2506
      3 N          63.9572   90.4726   12.2157 N.am    1  UNL1       -0.2723
      4 C          63.2022   90.8937   10.9898 C.3     1  UNL1        0.1257
      5 C          62.1021   90.0272   10.4521 C.3     1  UNL1        0.1637
      6 O          61.7570   88.7399   11.1402 O.3     1  UNL1       -0.3502
      7 C          62.5120   88.3188   12.3660 C.3     1  UNL1        0.1622
      8 C          63.6120   89.1852   12.9038 C.3     1  UNL1        0.1097
      9 C          65.4024   92.6264   12.0654 C.ar    1  UNL1        0.0730
     10 C          64.8180   92.9375   10.7194 C.ar    1  UNL1        0.0070
     11 C          65.1631   94.2249   10.0313 C.ar    1  UNL1        0.0116
     12 C          66.0926   95.2012   10.6891 C.ar    1  UNL1        0.0592
     13 CL         66.4378   96.4886   10.0010 Cl      1  UNL1       -0.0822
     14 C          66.6771   94.8900   12.0351 C.ar    1  UNL1        0.0324
     15 C          66.3320   93.6027   12.7232 C.ar    1  UNL1        0.1081
     16 N          66.9164   93.2916   14.0692 N.ar    1  UNL1       -0.1476
     17 N          66.1726   93.2784   15.3717 N.ar    1  UNL1       -0.1447
     18 C          67.1437   92.9177   16.4565 C.ar    1  UNL1        0.1446
     19 C          68.4878   92.7079   15.8244 C.ar    1  UNL1        0.1446
     20 N          68.3473   92.9390   14.3490 N.ar    1  UNL1       -0.1447
     21 C          64.3670   88.7642   14.1297 C.3     1  UNL1        0.0510
     22 C          63.9456   87.5395   14.8863 C.ar    1  UNL1        0.0071
     23 C          64.0583   86.1872   14.2470 C.ar    1  UNL1        0.0012
     24 C          63.6369   84.9624   15.0036 C.ar    1  UNL1        0.0389
     25 C          63.1028   85.0900   16.3995 C.ar    1  UNL1        0.0054
     26 C          62.9902   86.4423   17.0388 C.ar    1  UNL1        0.0294
     27 C          63.4116   87.6670   16.2822 C.ar    1  UNL1        0.1362
     28 F          63.2989   89.0192   16.9215 F       1  UNL1       -0.2045
     29 C          63.7495   83.6102   14.3644 C.ar    1  UNL1        0.2037
     30 N          64.2386   83.3302   12.9743 N.ar    1  UNL1       -0.1829
     31 C          64.1843   81.8475   12.7537 C.ar    1  UNL1        0.3164
     32 O          63.6616   81.2111   14.0075 O.2     1  UNL1       -0.3274
     33 N          63.3930   82.3006   15.0029 N.ar    1  UNL1       -0.0554
@<TRIPOS>BOND
     1     1     2    2
     2     2     9    1
     3     9    10   ar
     4    10    11   ar
     5    11    12   ar
     6    12    13    1
     7    12    14   ar
     8    14    15   ar
     9    15    16    1
    10    16    17   ar
    11    17    18   ar
    12    18    19   ar
    13    19    20   ar
    14     2     3   am
    15     3     4    1
    16     4     5    1
    17     5     6    1
    18     6     7    1
    19     7     8    1
    20     8    21    1
    21    21    22    1
    22    22    23   ar
    23    23    24   ar
    24    24    29    1
    25    29    30   ar
    26    30    31   ar
    27    31    32   ar
    28    32    33   ar
    29    24    25   ar
    30    25    26   ar
    31    26    27   ar
    32    27    28    1
    33    15     9   ar
    34    20    16   ar
    35     8     3    1
    36    27    22   ar
    37    33    29   ar
@<TRIPOS>MOLECULE
*****
 33 37 0 0 0
SMALL
GASTEIGER

@<TRIPOS>ATOM
      1 O          63.5431   88.5057   12.4553 O.2     1  UNL1       -0.2699
      2 C          63.4822   87.3740   13.4380 C.2     1  UNL1        0.2506
      3 N          63.3738   87.6608   14.9063 N.am    1  UNL1       -0.2723
      4 C          63.3129   86.5291   15.8890 C.3     1  UNL1        0.1257
      5 C          63.2046   86.8159   17.3574 C.3     1  UNL1        0.1637
      6 O          63.1571   88.2343   17.8430 O.3     1  UNL1       -0.3502
      7 C          63.2179   89.3660   16.8603 C.3     1  UNL1        0.1622
      8 C          63.3263   89.0792   15.3920 C.3     1  UNL1        0.1097
      9 C          63.5297   85.9556   12.9523 C.ar    1  UNL1        0.0730
     10 C          64.3754   84.9453   13.6693 C.ar    1  UNL1        0.0070
     11 C          64.4230   83.5269   13.1837 C.ar    1  UNL1        0.0116
     12 C          63.6248   83.1188   11.9811 C.ar    1  UNL1        0.0592
     13 CL         63.6723   81.7003   11.4954 Cl      1  UNL1       -0.0822
     14 C          62.7791   84.1291   11.2641 C.ar    1  UNL1        0.0324
     15 C          62.7315   85.5475   11.7497 C.ar    1  UNL1        0.1081
     16 N          61.8858   86.5578   11.0327 N.ar    1  UNL1       -0.1476
     17 N          60.6369   87.1976   11.5628 N.ar    1  UNL1       -0.1447
     18 C          60.1197   88.1409   10.5175 C.ar    1  UNL1        0.1446
     19 C          61.0490   88.0841    9.3413 C.ar    1  UNL1        0.1446
     20 N          62.1404   87.1056    9.6598 N.ar    1  UNL1       -0.1447
     21 C          63.3872   90.2108   14.4093 C.3     1  UNL1        0.0510
     22 C          64.5717   91.1310   14.3975 C.ar    1  UNL1        0.0071
     23 C          65.3059   91.3920   13.1158 C.ar    1  UNL1        0.0012
     24 C          66.4904   92.3123   13.1040 C.ar    1  UNL1        0.0389
     25 C          66.9407   92.9715   14.3739 C.ar    1  UNL1        0.0054
     26 C          66.2065   92.7104   15.6557 C.ar    1  UNL1        0.0294
     27 C          65.0220   91.7902   15.6675 C.ar    1  UNL1        0.1362
     28 F          64.2878   91.5292   16.9492 F       1  UNL1       -0.2045
     29 C          67.2246   92.5733   11.8223 C.ar    1  UNL1        0.2037
     30 N          66.8170   93.5452   10.7550 N.ar    1  UNL1       -0.1829
     31 C          67.8358   93.4808    9.6559 C.ar    1  UNL1        0.3164
     32 O          68.8730   92.4691   10.0440 O.2     1  UNL1       -0.3274
     33 N          68.4953   91.9082   11.3829 N.ar    1  UNL1       -0.0554
@<TRIPOS>BOND
     1     1     2    2
     2     2     9    1
     3     9    10   ar
     4    10    11   ar
     5    11    12   ar
     6    12    13    1
     7    12    14   ar
     8    14    15   ar
     9    15    16    1
    10    16    17   ar
    11    17    18   ar
    12    18    19   ar
    13    19    20   ar
    14     2     3   am
    15     3     4    1
    16     4     5    1
    17     5     6    1
    18     6     7    1
    19     7     8    1
    20     8    21    1
    21    21    22    1
    22    22    23   ar
    23    23    24   ar
    24    24    29    1
    25    29    30   ar
    26    30    31   ar
    27    31    32   ar
    28    32    33   ar
    29    24    25   ar
    30    25    26   ar
    31    26    27   ar
    32    27    28    1
    33    15     9   ar
    34    20    16   ar
    35     8     3    1
    36    27    22   ar
    37    33    29   ar
@<TRIPOS>MOLECULE
*****
 33 37 0 0 0
SMALL
GASTEIGER

@<TRIPOS>ATOM
      1 O          62.6085   90.2887   11.4167 O.2     1  UNL1       -0.2699
      2 C          62.6750   88.7934   11.5152 C.2     1  UNL1        0.2506
      3 N          63.3386   88.1483   12.6957 N.am    1  UNL1       -0.2723
      4 C          63.4051   86.6531   12.7942 C.3     1  UNL1        0.1257
      5 C          64.0688   86.0080   13.9747 C.3     1  UNL1        0.1637
      6 O          64.6660   86.8583   15.0566 O.3     1  UNL1       -0.3502
      7 C          64.5995   88.3535   14.9580 C.3     1  UNL1        0.1622
      8 C          63.9358   88.9986   13.7776 C.3     1  UNL1        0.1097
      9 C          62.0778   87.9431   10.4333 C.ar    1  UNL1        0.0730
     10 C          62.9466   86.9996    9.6554 C.ar    1  UNL1        0.0070
     11 C          62.3494   86.1494    8.5735 C.ar    1  UNL1        0.0116
     12 C          60.8836   86.2427    8.2695 C.ar    1  UNL1        0.0592
     13 CL         60.2864   85.3924    7.1876 Cl      1  UNL1       -0.0822
     14 C          60.0148   87.1862    9.0474 C.ar    1  UNL1        0.0324
     15 C          60.6119   88.0364   10.1293 C.ar    1  UNL1        0.1081
     16 N          59.7432   88.9799   10.9072 N.ar    1  UNL1       -0.1476
     17 N          58.9641   88.6443   12.1443 N.ar    1  UNL1       -0.1447
     18 C          58.2404   89.8816   12.5862 C.ar    1  UNL1        0.1446
     19 C          58.5721   90.9819   11.6222 C.ar    1  UNL1        0.1446
     20 N          59.5009   90.4246   10.5845 N.ar    1  UNL1       -0.1447
     21 C          63.8693   90.4939   13.6790 C.3     1  UNL1        0.0510
     22 C          65.1313   91.2935   13.5452 C.ar    1  UNL1        0.0071
     23 C          65.6610   91.6366   12.1845 C.ar    1  UNL1        0.0012
     24 C          66.9230   92.4364   12.0507 C.ar    1  UNL1        0.0389
     25 C          67.6552   92.8929   13.2776 C.ar    1  UNL1        0.0054
     26 C          67.1254   92.5498   14.6384 C.ar    1  UNL1        0.0294
     27 C          65.8635   91.7501   14.7722 C.ar    1  UNL1        0.1362
     28 F          65.3337   91.4070   16.1329 F       1  UNL1       -0.2045
     29 C          67.4527   92.7794   10.6900 C.ar    1  UNL1        0.2037
     30 N          67.4431   94.1394   10.0572 N.ar    1  UNL1       -0.1829
     31 C          68.0695   94.0233    8.6993 C.ar    1  UNL1        0.3164
     32 O          68.4663   92.5915    8.4927 O.2     1  UNL1       -0.3274
     33 N          68.0851   91.8228    9.7230 N.ar    1  UNL1       -0.0554
@<TRIPOS>BOND
     1     1     2    2
     2     2     9    1
     3     9    10   ar
     4    10    11   ar
     5    11    12   ar
     6    12    13    1
     7    12    14   ar
     8    14    15   ar
     9    15    16    1
    10    16    17   ar
    11    17    18   ar
    12    18    19   ar
    13    19    20   ar
    14     2     3   am
    15     3     4    1
    16     4     5    1
    17     5     6    1
    18     6     7    1
    19     7     8    1
    20     8    21    1
    21    21    22    1
    22    22    23   ar
    23    23    24   ar
    24    24    29    1
    25    29    30   ar
    26    30    31   ar
    27    31    32   ar
    28    32    33   ar
    29    24    25   ar
    30    25    26   ar
    31    26    27   ar
    32    27    28    1
    33    15     9   ar
    34    20    16   ar
    35     8     3    1
    36    27    22   ar
    37    33    29   ar
@<TRIPOS>MOLECULE
*****
 33 37 0 0 0
SMALL
GASTEIGER

@<TRIPOS>ATOM
      1 O          63.0774   89.7482   10.9202 O.2     1  UNL1       -0.2699
      2 C          62.7942   88.2886   11.1189 C.2     1  UNL1        0.2506
      3 N          63.2502   87.5998   12.3710 N.am    1  UNL1       -0.2723
      4 C          62.9670   86.1403   12.5697 C.3     1  UNL1        0.1257
      5 C          63.4231   85.4515   13.8218 C.3     1  UNL1        0.1637
      6 O          64.1622   86.2223   14.8751 O.3     1  UNL1       -0.3502
      7 C          64.4454   87.6819   14.6764 C.3     1  UNL1        0.1622
      8 C          63.9894   88.3706   13.4243 C.3     1  UNL1        0.1097
      9 C          62.0550   87.5178   10.0655 C.ar    1  UNL1        0.0730
     10 C          62.7844   86.5195    9.2162 C.ar    1  UNL1        0.0070
     11 C          62.0453   85.7488    8.1629 C.ar    1  UNL1        0.0116
     12 C          60.5768   85.9763    7.9589 C.ar    1  UNL1        0.0592
     13 CL         59.8376   85.2055    6.9055 Cl      1  UNL1       -0.0822
     14 C          59.8474   86.9746    8.8082 C.ar    1  UNL1        0.0324
     15 C          60.5865   87.7453    9.8616 C.ar    1  UNL1        0.1081
     16 N          59.8571   88.7436   10.7109 N.ar    1  UNL1       -0.1476
     17 N          59.6830   90.2017   10.4048 N.ar    1  UNL1       -0.1447
     18 C          58.8921   90.8183   11.5202 C.ar    1  UNL1        0.1446
     19 C          58.5773   89.7413   12.5157 C.ar    1  UNL1        0.1446
     20 N          59.1737   88.4591   12.0155 N.ar    1  UNL1       -0.1447
     21 C          64.2726   89.8302   13.2256 C.3     1  UNL1        0.0510
     22 C          64.7046   90.6753   14.3871 C.ar    1  UNL1        0.0071
     23 C          66.0336   91.3701   14.3558 C.ar    1  UNL1        0.0012
     24 C          66.4657   92.2152   15.5173 C.ar    1  UNL1        0.0389
     25 C          65.5687   92.3656   16.7101 C.ar    1  UNL1        0.0054
     26 C          64.2396   91.6708   16.7414 C.ar    1  UNL1        0.0294
     27 C          63.8076   90.8257   15.5799 C.ar    1  UNL1        0.1362
     28 F          62.4786   90.1309   15.6112 F       1  UNL1       -0.2045
     29 C          67.7947   92.9100   15.4860 C.ar    1  UNL1        0.2037
     30 N          68.2112   94.0561   16.3595 N.ar    1  UNL1       -0.1829
     31 C          69.6144   94.4351   15.9890 C.ar    1  UNL1        0.3164
     32 O          70.0652   93.5232   14.8865 O.2     1  UNL1       -0.3274
     33 N          68.9405   92.5807   14.5757 N.ar    1  UNL1       -0.0554
@<TRIPOS>BOND
     1     1     2    2
     2     2     9    1
     3     9    10   ar
     4    10    11   ar
     5    11    12   ar
     6    12    13    1
     7    12    14   ar
     8    14    15   ar
     9    15    16    1
    10    16    17   ar
    11    17    18   ar
    12    18    19   ar
    13    19    20   ar
    14     2     3   am
    15     3     4    1
    16     4     5    1
    17     5     6    1
    18     6     7    1
    19     7     8    1
    20     8    21    1
    21    21    22    1
    22    22    23   ar
    23    23    24   ar
    24    24    29    1
    25    29    30   ar
    26    30    31   ar
    27    31    32   ar
    28    32    33   ar
    29    24    25   ar
    30    25    26   ar
    31    26    27   ar
    32    27    28    1
    33    15     9   ar
    34    20    16   ar
    35     8     3    1
    36    27    22   ar
    37    33    29   ar
