@<TRIPOS>MOLECULE
*****
 29 32 0 0 0
SMALL
GASTEIGER

@<TRIPOS>ATOM
      1 C          63.8371   83.1348   14.6073 C.ar    1  UNL1        0.1386
      2 C          64.9637   84.0140   14.1515 C.ar    1  UNL1        0.0369
      3 C          64.9425   85.4814   14.4617 C.ar    1  UNL1        0.0047
      4 C          63.7948   86.0696   15.2277 C.ar    1  UNL1        0.0196
      5 C          62.6683   85.1904   15.6835 C.ar    1  UNL1        0.0047
      6 C          62.6894   83.7230   15.3733 C.ar    1  UNL1        0.0369
      7 C          63.7737   87.5370   15.5379 C.ar    1  UNL1        0.1016
      8 C          63.0963   88.0310   16.7817 C.ar    1  UNL1        0.0258
      9 C          63.0752   89.4985   17.0919 C.ar    1  UNL1        0.0642
     10 C          63.7316   90.4719   16.1582 C.ar    1  UNL1        0.2830
     11 O          63.7105   91.9393   16.4684 O.2     1  UNL1       -0.2651
     12 N          64.4090   89.9778   14.9144 N.ar    1  UNL1       -0.1600
     13 N          64.4301   88.5104   14.6043 N.ar    1  UNL1       -0.1600
     14 C          65.0654   90.9513   13.9808 C.ar    1  UNL1        0.2557
     15 N          66.4080   91.5277   14.3207 N.ar    1  UNL1       -0.2083
     16 C          67.0643   92.5011   13.3870 C.ar    1  UNL1        0.1037
     17 C          66.3782   92.8981   12.1136 C.ar    1  UNL1        0.0415
     18 C          65.0357   92.3217   11.7738 C.ar    1  UNL1        0.1037
     19 N          64.3793   91.3482   12.7074 N.ar    1  UNL1       -0.2083
     20 O          63.8582   81.6673   14.2971 O.3     1  UNL1       -0.4754
     21 C          63.5535   81.1899   12.9082 C.3     1  UNL1        0.2068
     22 C          62.7274   82.0386   11.9877 C.3     1  UNL1        0.0646
     23 C          63.3948   83.0265   11.0775 C.3     1  UNL1        0.0759
     24 C          63.2619   84.6999    8.2790 C.3     1  UNL1        0.0173
     25 C          62.7459   85.1636    9.6089 C.3     1  UNL1        0.0576
     26 C          62.0782   86.4779    9.8860 C.3     1  UNL1        0.0174
     27 C          61.7266   86.5210   11.3436 C.3     1  UNL1        0.0187
     28 C          62.1770   85.2334   11.9673 C.3     1  UNL1        0.0721
     29 N          62.8070   84.3944   10.8952 N.3     1  UNL1       -0.2738
@<TRIPOS>BOND
     1    25    24    1
     2    25    26    1
     3    26    27    1
     4    27    28    1
     5    28    29    1
     6    29    23    1
     7    23    22    1
     8    22    21    1
     9    21    20    1
    10    20     1    1
    11     1     2   ar
    12     2     3   ar
    13     3     4   ar
    14     4     7    1
    15     7     8   ar
    16     8     9   ar
    17     9    10   ar
    18    10    11    2
    19    10    12   ar
    20    12    14    1
    21    14    15   ar
    22    15    16   ar
    23    16    17   ar
    24    17    18   ar
    25    18    19   ar
    26    12    13   ar
    27     4     5   ar
    28     5     6   ar
    29    29    25    1
    30     6     1   ar
    31    13     7   ar
    32    19    14   ar
@<TRIPOS>MOLECULE
*****
 29 32 0 0 0
SMALL
GASTEIGER

@<TRIPOS>ATOM
      1 C          64.6585   91.2983   14.7242 C.ar    1  UNL1        0.1386
      2 C          64.5725   89.8488   15.1003 C.ar    1  UNL1        0.0369
      3 C          63.9878   88.8577   14.1381 C.ar    1  UNL1        0.0047
      4 C          63.4892   89.3162   12.7997 C.ar    1  UNL1        0.0196
      5 C          63.5752   90.7657   12.4236 C.ar    1  UNL1        0.0047
      6 C          64.1599   91.7567   13.3859 C.ar    1  UNL1        0.0369
      7 C          62.9045   88.3251   11.8375 C.ar    1  UNL1        0.1016
      8 C          62.0878   88.8021   10.6733 C.ar    1  UNL1        0.0258
      9 C          61.5031   87.8110    9.7110 C.ar    1  UNL1        0.0642
     10 C          61.7351   86.3429    9.9130 C.ar    1  UNL1        0.2830
     11 O          61.1505   85.3518    8.9508 O.2     1  UNL1       -0.2651
     12 N          62.5519   85.8659   11.0773 N.ar    1  UNL1       -0.1600
     13 N          63.1366   86.8570   12.0395 N.ar    1  UNL1       -0.1600
     14 C          62.7840   84.3978   11.2793 C.ar    1  UNL1        0.2557
     15 N          62.2990   83.7269   12.5302 N.ar    1  UNL1       -0.2083
     16 C          62.5310   82.2588   12.7322 C.ar    1  UNL1        0.1037
     17 C          63.2481   81.4616   11.6833 C.ar    1  UNL1        0.0415
     18 C          63.7331   82.1324   10.4324 C.ar    1  UNL1        0.1037
     19 N          63.5011   83.6005   10.2304 N.ar    1  UNL1       -0.2083
     20 O          65.2432   92.2894   15.6865 O.3     1  UNL1       -0.4754
     21 C          66.7312   92.4523   15.7838 C.3     1  UNL1        0.2068
     22 C          67.4466   93.3824   14.8493 C.3     1  UNL1        0.0646
     23 C          66.6697   94.1787   13.8432 C.3     1  UNL1        0.0759
     24 C          65.9956   96.1688   11.3463 C.3     1  UNL1        0.0173
     25 C          66.4320   94.7376   11.2402 C.3     1  UNL1        0.0576
     26 C          66.6351   93.9699    9.9676 C.3     1  UNL1        0.0174
     27 C          67.0704   92.5806   10.3288 C.3     1  UNL1        0.0187
     28 C          67.1364   92.4898   11.8246 C.3     1  UNL1        0.0721
     29 N          66.7418   93.8228   12.3879 N.3     1  UNL1       -0.2738
@<TRIPOS>BOND
     1    25    24    1
     2    25    26    1
     3    26    27    1
     4    27    28    1
     5    28    29    1
     6    29    23    1
     7    23    22    1
     8    22    21    1
     9    21    20    1
    10    20     1    1
    11     1     2   ar
    12     2     3   ar
    13     3     4   ar
    14     4     7    1
    15     7     8   ar
    16     8     9   ar
    17     9    10   ar
    18    10    11    2
    19    10    12   ar
    20    12    14    1
    21    14    15   ar
    22    15    16   ar
    23    16    17   ar
    24    17    18   ar
    25    18    19   ar
    26    12    13   ar
    27     4     5   ar
    28     5     6   ar
    29    29    25    1
    30     6     1   ar
    31    13     7   ar
    32    19    14   ar
@<TRIPOS>MOLECULE
*****
 29 32 0 0 0
SMALL
GASTEIGER

@<TRIPOS>ATOM
      1 C          59.6641   88.6714    7.5488 C.ar    1  UNL1        0.1386
      2 C          60.5194   89.2060    8.6590 C.ar    1  UNL1        0.0369
      3 C          61.3252   88.2649    9.5046 C.ar    1  UNL1        0.0047
      4 C          61.2757   86.7893    9.2399 C.ar    1  UNL1        0.0196
      5 C          60.4203   86.2547    8.1297 C.ar    1  UNL1        0.0047
      6 C          59.6146   87.1958    7.2841 C.ar    1  UNL1        0.0369
      7 C          62.0815   85.8482   10.0856 C.ar    1  UNL1        0.1016
      8 C          62.7900   84.6887    9.4504 C.ar    1  UNL1        0.0258
      9 C          63.5958   83.7476   10.2961 C.ar    1  UNL1        0.0642
     10 C          63.6931   83.9661   11.7769 C.ar    1  UNL1        0.2830
     11 O          64.4989   83.0251   12.6225 O.2     1  UNL1       -0.2651
     12 N          62.9846   85.1257   12.4120 N.ar    1  UNL1       -0.1600
     13 N          62.1788   86.0667   11.5664 N.ar    1  UNL1       -0.1600
     14 C          63.0818   85.3442   13.8928 C.ar    1  UNL1        0.2557
     15 N          63.9805   86.4158   14.4354 N.ar    1  UNL1       -0.2083
     16 C          64.0778   86.6343   15.9162 C.ar    1  UNL1        0.1037
     17 C          63.2764   85.7812   16.8545 C.ar    1  UNL1        0.0415
     18 C          62.3778   84.7098   16.3119 C.ar    1  UNL1        0.1037
     19 N          62.2805   84.4913   14.8311 N.ar    1  UNL1       -0.2083
     20 O          58.8583   89.6125    6.7031 O.3     1  UNL1       -0.4754
     21 C          59.5021   90.3223    5.5492 C.3     1  UNL1        0.2068
     22 C          58.7956   91.4660    4.8835 C.3     1  UNL1        0.0646
     23 C          59.5737   92.6637    4.4254 C.3     1  UNL1        0.0759
     24 C          62.5299   91.5198    3.6497 C.3     1  UNL1        0.0173
     25 C          61.5528   92.1518    2.7032 C.3     1  UNL1        0.0576
     26 C          61.7630   92.3690    1.2340 C.3     1  UNL1        0.0174
     27 C          60.5340   93.0290    0.6825 C.3     1  UNL1        0.0187
     28 C          59.5644   93.2197    1.8109 C.3     1  UNL1        0.0721
     29 N          60.1939   92.6776    3.0598 N.3     1  UNL1       -0.2738
@<TRIPOS>BOND
     1    25    24    1
     2    25    26    1
     3    26    27    1
     4    27    28    1
     5    28    29    1
     6    29    23    1
     7    23    22    1
     8    22    21    1
     9    21    20    1
    10    20     1    1
    11     1     2   ar
    12     2     3   ar
    13     3     4   ar
    14     4     7    1
    15     7     8   ar
    16     8     9   ar
    17     9    10   ar
    18    10    11    2
    19    10    12   ar
    20    12    14    1
    21    14    15   ar
    22    15    16   ar
    23    16    17   ar
    24    17    18   ar
    25    18    19   ar
    26    12    13   ar
    27     4     5   ar
    28     5     6   ar
    29    29    25    1
    30     6     1   ar
    31    13     7   ar
    32    19    14   ar
@<TRIPOS>MOLECULE
*****
 29 32 0 0 0
SMALL
GASTEIGER

@<TRIPOS>ATOM
      1 C          59.7765   88.8048    7.7910 C.ar    1  UNL1        0.1386
      2 C          60.4817   89.6570    8.8041 C.ar    1  UNL1        0.0369
      3 C          61.2368   89.0144    9.9296 C.ar    1  UNL1        0.0047
      4 C          61.2865   87.5194   10.0421 C.ar    1  UNL1        0.0196
      5 C          60.5813   86.6672    9.0291 C.ar    1  UNL1        0.0047
      6 C          59.8263   87.3098    7.9035 C.ar    1  UNL1        0.0369
      7 C          62.0416   86.8767   11.1677 C.ar    1  UNL1        0.1016
      8 C          62.8915   87.7152   12.0758 C.ar    1  UNL1        0.0258
      9 C          63.6466   87.0725   13.2014 C.ar    1  UNL1        0.0642
     10 C          63.5517   85.5914   13.4189 C.ar    1  UNL1        0.2830
     11 O          64.3067   84.9487   14.5444 O.2     1  UNL1       -0.2651
     12 N          62.7017   84.7529   12.5107 N.ar    1  UNL1       -0.1600
     13 N          61.9467   85.3956   11.3852 N.ar    1  UNL1       -0.1600
     14 C          62.6068   83.2718   12.7282 C.ar    1  UNL1        0.2557
     15 N          63.0492   82.3258   11.6514 N.ar    1  UNL1       -0.2083
     16 C          62.9543   80.8447   11.8689 C.ar    1  UNL1        0.1037
     17 C          62.4169   80.3096   13.1632 C.ar    1  UNL1        0.0415
     18 C          61.9745   81.2556   14.2399 C.ar    1  UNL1        0.1037
     19 N          62.0694   82.7367   14.0224 N.ar    1  UNL1       -0.2083
     20 O          59.0215   89.4475    6.6654 O.3     1  UNL1       -0.4754
     21 C          59.7503   90.2785    5.6515 C.3     1  UNL1        0.2068
     22 C          59.0176   91.3392    4.8845 C.3     1  UNL1        0.0646
     23 C          59.7438   92.5678    4.4230 C.3     1  UNL1        0.0759
     24 C          62.7059   91.5833    3.4713 C.3     1  UNL1        0.0173
     25 C          61.6511   92.1841    2.5902 C.3     1  UNL1        0.0576
     26 C          61.7728   92.4378    1.1168 C.3     1  UNL1        0.0174
     27 C          60.4864   93.0472    0.6436 C.3     1  UNL1        0.0187
     28 C          59.5697   93.1700    1.8246 C.3     1  UNL1        0.0721
     29 N          60.2896   92.6366    3.0276 N.3     1  UNL1       -0.2738
@<TRIPOS>BOND
     1    25    24    1
     2    25    26    1
     3    26    27    1
     4    27    28    1
     5    28    29    1
     6    29    23    1
     7    23    22    1
     8    22    21    1
     9    21    20    1
    10    20     1    1
    11     1     2   ar
    12     2     3   ar
    13     3     4   ar
    14     4     7    1
    15     7     8   ar
    16     8     9   ar
    17     9    10   ar
    18    10    11    2
    19    10    12   ar
    20    12    14    1
    21    14    15   ar
    22    15    16   ar
    23    16    17   ar
    24    17    18   ar
    25    18    19   ar
    26    12    13   ar
    27     4     5   ar
    28     5     6   ar
    29    29    25    1
    30     6     1   ar
    31    13     7   ar
    32    19    14   ar
@<TRIPOS>MOLECULE
*****
 29 32 0 0 0
SMALL
GASTEIGER

@<TRIPOS>ATOM
      1 C          64.0306   91.1472   12.5346 C.ar    1  UNL1        0.1386
      2 C          64.6862   90.7995   13.8382 C.ar    1  UNL1        0.0369
      3 C          64.6108   89.3972   14.3651 C.ar    1  UNL1        0.0047
      4 C          63.8798   88.3424   13.5884 C.ar    1  UNL1        0.0196
      5 C          63.2243   88.6901   12.2848 C.ar    1  UNL1        0.0047
      6 C          63.2997   90.0924   11.7579 C.ar    1  UNL1        0.0369
      7 C          63.8044   86.9400   14.1154 C.ar    1  UNL1        0.1016
      8 C          63.8710   86.6894   15.5928 C.ar    1  UNL1        0.0258
      9 C          63.7956   85.2870   16.1197 C.ar    1  UNL1        0.0642
     10 C          63.6537   84.1353   15.1692 C.ar    1  UNL1        0.2830
     11 O          63.5783   82.7329   15.6961 O.2     1  UNL1       -0.2651
     12 N          63.5871   84.3860   13.6918 N.ar    1  UNL1       -0.1600
     13 N          63.6625   85.7883   13.1649 N.ar    1  UNL1       -0.1600
     14 C          63.4452   83.2343   12.7413 C.ar    1  UNL1        0.2557
     15 N          64.0563   83.3110   11.3735 N.ar    1  UNL1       -0.2083
     16 C          63.9144   82.1592   10.4230 C.ar    1  UNL1        0.1037
     17 C          63.1614   80.9308   10.8403 C.ar    1  UNL1        0.0415
     18 C          62.5503   80.8542   12.2080 C.ar    1  UNL1        0.1037
     19 N          62.6922   82.0059   13.1585 N.ar    1  UNL1       -0.2083
     20 O          64.1060   92.5496   12.0077 O.3     1  UNL1       -0.4754
     21 C          65.0049   92.8685   10.8500 C.3     1  UNL1        0.2068
     22 C          66.2002   93.7525   11.0498 C.3     1  UNL1        0.0646
     23 C          66.4727   94.3521   12.3974 C.3     1  UNL1        0.0759
     24 C          68.3673   91.7113   12.1038 C.3     1  UNL1        0.0173
     25 C          67.8253   92.2695   13.3863 C.3     1  UNL1        0.0576
     26 C          68.0591   91.7118   14.7590 C.3     1  UNL1        0.0174
     27 C          67.3328   92.5809   15.7424 C.3     1  UNL1        0.0187
     28 C          66.6501   93.6758   14.9774 C.3     1  UNL1        0.0721
     29 N          66.9545   93.4833   13.5213 N.3     1  UNL1       -0.2738
@<TRIPOS>BOND
     1    25    24    1
     2    25    26    1
     3    26    27    1
     4    27    28    1
     5    28    29    1
     6    29    23    1
     7    23    22    1
     8    22    21    1
     9    21    20    1
    10    20     1    1
    11     1     2   ar
    12     2     3   ar
    13     3     4   ar
    14     4     7    1
    15     7     8   ar
    16     8     9   ar
    17     9    10   ar
    18    10    11    2
    19    10    12   ar
    20    12    14    1
    21    14    15   ar
    22    15    16   ar
    23    16    17   ar
    24    17    18   ar
    25    18    19   ar
    26    12    13   ar
    27     4     5   ar
    28     5     6   ar
    29    29    25    1
    30     6     1   ar
    31    13     7   ar
    32    19    14   ar
@<TRIPOS>MOLECULE
*****
 29 32 0 0 0
SMALL
GASTEIGER

@<TRIPOS>ATOM
      1 C          64.0613   91.2318   12.7018 C.ar    1  UNL1        0.1386
      2 C          64.7352   90.8551   13.9878 C.ar    1  UNL1        0.0369
      3 C          64.6783   89.4384   14.4774 C.ar    1  UNL1        0.0047
      4 C          63.9475   88.3984   13.6809 C.ar    1  UNL1        0.0196
      5 C          63.2736   88.7751   12.3949 C.ar    1  UNL1        0.0047
      6 C          63.3305   90.1918   11.9054 C.ar    1  UNL1        0.0369
      7 C          63.8907   86.9816   14.1706 C.ar    1  UNL1        0.1016
      8 C          63.9897   86.6910   15.6388 C.ar    1  UNL1        0.0258
      9 C          63.9328   85.2742   16.1284 C.ar    1  UNL1        0.0642
     10 C          63.7769   84.1482   15.1497 C.ar    1  UNL1        0.2830
     11 O          63.7201   82.7315   15.6393 O.2     1  UNL1       -0.2651
     12 N          63.6779   84.4389   13.6815 N.ar    1  UNL1       -0.1600
     13 N          63.7348   85.8556   13.1919 N.ar    1  UNL1       -0.1600
     14 C          63.5220   83.3129   12.7028 C.ar    1  UNL1        0.2557
     15 N          62.6983   82.1128   13.0653 N.ar    1  UNL1       -0.2083
     16 C          62.5424   80.9868   12.0866 C.ar    1  UNL1        0.1037
     17 C          63.2102   81.0608   10.7455 C.ar    1  UNL1        0.0415
     18 C          64.0339   82.2609   10.3831 C.ar    1  UNL1        0.1037
     19 N          64.1898   83.3869   11.3617 N.ar    1  UNL1       -0.2083
     20 O          64.1181   92.6485   12.2122 O.3     1  UNL1       -0.4754
     21 C          65.3088   93.1262   11.4349 C.3     1  UNL1        0.2068
     22 C          66.3148   94.0300   12.0840 C.3     1  UNL1        0.0646
     23 C          66.4350   95.4583   11.6419 C.3     1  UNL1        0.0759
     24 C          68.1355   94.0431    9.2430 C.3     1  UNL1        0.0173
     25 C          67.1372   95.1508    9.0812 C.3     1  UNL1        0.0576
     26 C          66.7452   95.8025    7.7883 C.3     1  UNL1        0.0174
     27 C          65.7212   96.8559    8.0919 C.3     1  UNL1        0.0187
     28 C          65.4804   96.8551    9.5724 C.3     1  UNL1        0.0721
     29 N          66.3555   95.8014   10.1839 N.3     1  UNL1       -0.2738
@<TRIPOS>BOND
     1    25    24    1
     2    25    26    1
     3    26    27    1
     4    27    28    1
     5    28    29    1
     6    29    23    1
     7    23    22    1
     8    22    21    1
     9    21    20    1
    10    20     1    1
    11     1     2   ar
    12     2     3   ar
    13     3     4   ar
    14     4     7    1
    15     7     8   ar
    16     8     9   ar
    17     9    10   ar
    18    10    11    2
    19    10    12   ar
    20    12    14    1
    21    14    15   ar
    22    15    16   ar
    23    16    17   ar
    24    17    18   ar
    25    18    19   ar
    26    12    13   ar
    27     4     5   ar
    28     5     6   ar
    29    29    25    1
    30     6     1   ar
    31    13     7   ar
    32    19    14   ar
@<TRIPOS>MOLECULE
*****
 29 32 0 0 0
SMALL
GASTEIGER

@<TRIPOS>ATOM
      1 C          60.2121   91.7019    4.1852 C.ar    1  UNL1        0.1386
      2 C          61.6445   91.2740    4.0626 C.ar    1  UNL1        0.0369
      3 C          62.5557   91.9722    3.0971 C.ar    1  UNL1        0.0047
      4 C          62.0345   93.0982    2.2543 C.ar    1  UNL1        0.0196
      5 C          60.6021   93.5261    2.3769 C.ar    1  UNL1        0.0047
      6 C          59.6909   92.8279    3.3424 C.ar    1  UNL1        0.0369
      7 C          62.9458   93.7964    1.2887 C.ar    1  UNL1        0.1016
      8 C          64.0233   94.7068    1.7988 C.ar    1  UNL1        0.0258
      9 C          64.9346   95.4050    0.8333 C.ar    1  UNL1        0.0642
     10 C          64.7684   95.1927   -0.6423 C.ar    1  UNL1        0.2830
     11 O          65.6796   95.8908   -1.6078 O.2     1  UNL1       -0.2651
     12 N          63.6908   94.2822   -1.1523 N.ar    1  UNL1       -0.1600
     13 N          62.7796   93.5840   -0.1868 N.ar    1  UNL1       -0.1600
     14 C          63.5246   94.0698   -2.6279 C.ar    1  UNL1        0.2557
     15 N          62.8527   95.1173   -3.4654 N.ar    1  UNL1       -0.2083
     16 C          62.6865   94.9050   -4.9409 C.ar    1  UNL1        0.1037
     17 C          63.1922   93.6452   -5.5790 C.ar    1  UNL1        0.0415
     18 C          63.8642   92.5977   -4.7416 C.ar    1  UNL1        0.1037
     19 N          64.0304   92.8101   -3.2660 N.ar    1  UNL1       -0.2083
     20 O          59.3008   91.0037    5.1508 O.3     1  UNL1       -0.4754
     21 C          59.7825   89.7945    5.8962 C.3     1  UNL1        0.2068
     22 C          59.0290   89.3042    7.0970 C.3     1  UNL1        0.0646
     23 C          59.6171   88.2315    7.9649 C.3     1  UNL1        0.0759
     24 C          62.1434   86.4950    9.0835 C.3     1  UNL1        0.0173
     25 C          61.6594   87.8031    9.6353 C.3     1  UNL1        0.0576
     26 C          62.2517   88.5428   10.7980 C.3     1  UNL1        0.0174
     27 C          61.4565   89.7982   11.0026 C.3     1  UNL1        0.0187
     28 C          60.3728   89.8343    9.9661 C.3     1  UNL1        0.0721
     29 N          60.4982   88.6013    9.1211 N.3     1  UNL1       -0.2738
@<TRIPOS>BOND
     1    25    24    1
     2    25    26    1
     3    26    27    1
     4    27    28    1
     5    28    29    1
     6    29    23    1
     7    23    22    1
     8    22    21    1
     9    21    20    1
    10    20     1    1
    11     1     2   ar
    12     2     3   ar
    13     3     4   ar
    14     4     7    1
    15     7     8   ar
    16     8     9   ar
    17     9    10   ar
    18    10    11    2
    19    10    12   ar
    20    12    14    1
    21    14    15   ar
    22    15    16   ar
    23    16    17   ar
    24    17    18   ar
    25    18    19   ar
    26    12    13   ar
    27     4     5   ar
    28     5     6   ar
    29    29    25    1
    30     6     1   ar
    31    13     7   ar
    32    19    14   ar
