@<TRIPOS>MOLECULE
*****
 37 40 0 0 0
SMALL
GASTEIGER

@<TRIPOS>ATOM
      1 C          63.3673   89.5514   12.1147 C.ar    1  UNL1        0.0769
      2 N          63.3317   89.1715   13.5653 N.ar    1  UNL1       -0.2502
      3 C          63.9519   90.0723   14.5920 C.ar    1  UNL1        0.0579
      4 C          63.9163   89.6923   16.0426 C.3     1  UNL1        0.0518
      5 C          64.6078   91.3529   14.1679 C.ar    1  UNL1        0.0232
      6 C          64.6434   91.7328   12.7172 C.ar    1  UNL1       -0.0027
      7 C          64.0231   90.8321   11.6906 C.ar    1  UNL1       -0.0044
      8 C          64.0587   91.2120   10.2399 C.3     1  UNL1        0.0326
      9 C          65.2992   93.0135   12.2932 C.ar    1  UNL1       -0.0004
     10 C          65.7982   93.9788   13.3273 C.ar    1  UNL1        0.0008
     11 C          66.4541   95.2594   12.9033 C.ar    1  UNL1        0.0114
     12 C          66.6109   95.5748   11.4451 C.ar    1  UNL1        0.0577
     13 CL         67.2668   96.8554   11.0211 Cl      1  UNL1       -0.0822
     14 C          66.1119   94.6095   10.4112 C.ar    1  UNL1        0.0114
     15 C          65.4561   93.3288   10.8352 C.ar    1  UNL1        0.0008
     16 C          61.5066   86.8492    9.0348 C.ar    1  UNL1        0.0039
     17 C          62.1983   86.2610   10.2287 C.ar    1  UNL1        0.0002
     18 C          62.8185   87.1618   11.2553 C.ar    1  UNL1        0.0015
     19 C          62.7470   88.6507   11.0880 C.ar    1  UNL1        0.0173
     20 C          62.0553   89.2389    9.8940 C.ar    1  UNL1        0.0015
     21 C          61.4351   88.3381    8.8674 C.ar    1  UNL1        0.0002
     22 C          63.0459   84.5189    7.3466 C.3     1  UNL1        0.0556
     23 C          61.5939   84.8774    7.2321 C.ar    1  UNL1        0.1006
     24 N          60.5944   84.2277    6.3216 N.ar    1  UNL1       -0.0817
     25 O          59.2692   84.8972    6.5349 O.2     1  UNL1       -0.3581
     26 C          59.4496   85.9607    7.5772 C.ar    1  UNL1        0.1544
     27 C          58.3809   86.8758    8.0972 C.3     1  UNL1        0.0754
     28 C          60.8863   85.9485    8.0081 C.ar    1  UNL1        0.0496
     29 C          65.2280   92.2536   15.1945 C.3     1  UNL1        0.1744
     30 C          64.5311   92.4934   16.5010 C.2     1  UNL1        0.0816
     31 O          65.2754   92.3176   17.7914 O.co2   1  UNL1       -0.5464
     32 O          63.0899   92.9091   16.5170 O.co2   1  UNL1       -0.5464
     33 O          66.5452   92.9146   14.9147 O.3     1  UNL1       -0.3510
     34 C          67.7833   92.4485   15.6216 C.3     1  UNL1        0.0938
     35 C          67.5534   91.0582   15.1077 C.3     1  UNL1        0.0297
     36 C          68.0133   93.8388   16.1355 C.3     1  UNL1        0.0297
     37 C          69.0216   91.9825   16.3285 C.3     1  UNL1        0.0297
@<TRIPOS>UNITY_ATOM_ATTR
31 1
charge -1
@<TRIPOS>BOND
     1    22    23    1
     2    23    24   ar
     3    24    25   ar
     4    25    26   ar
     5    26    27    1
     6    26    28   ar
     7    28    16    1
     8    16    17   ar
     9    17    18   ar
    10    18    19   ar
    11    19     1    1
    12     1     2   ar
    13     2     3   ar
    14     3     4    1
    15     3     5   ar
    16     5    29    1
    17    29    33    1
    18    33    34    1
    19    34    35    1
    20    34    36    1
    21    34    37    1
    22    29    30    1
    23    30    31   ar
    24    30    32   ar
    25     5     6   ar
    26     6     9    1
    27     9    10   ar
    28    10    11   ar
    29    11    12   ar
    30    12    13    1
    31    12    14   ar
    32    14    15   ar
    33     6     7   ar
    34     7     8    1
    35    19    20   ar
    36    20    21   ar
    37    28    23   ar
    38    21    16   ar
    39     7     1   ar
    40    15     9   ar
@<TRIPOS>MOLECULE
*****
 37 40 0 0 0
SMALL
GASTEIGER

@<TRIPOS>ATOM
      1 C          61.9094   87.3567   10.7403 C.ar    1  UNL1        0.0769
      2 N          62.5326   88.1377   11.8590 N.ar    1  UNL1       -0.2502
      3 C          63.1935   87.4193   12.9980 C.ar    1  UNL1        0.0579
      4 C          63.8168   88.2004   14.1167 C.3     1  UNL1        0.0518
      5 C          63.2312   85.9200   13.0182 C.ar    1  UNL1        0.0232
      6 C          62.6079   85.1389   11.8994 C.ar    1  UNL1       -0.0027
      7 C          61.9470   85.8573   10.7605 C.ar    1  UNL1       -0.0044
      8 C          61.3238   85.0763    9.6417 C.3     1  UNL1        0.0326
      9 C          62.6456   83.6395   11.9196 C.ar    1  UNL1       -0.0004
     10 C          63.3532   82.8923   10.8282 C.ar    1  UNL1        0.0008
     11 C          63.3908   81.3929   10.8484 C.ar    1  UNL1        0.0114
     12 C          62.7209   80.6408   11.9600 C.ar    1  UNL1        0.0577
     13 CL         62.7586   79.1414   11.9802 Cl      1  UNL1       -0.0822
     14 C          62.0134   81.3880   13.0513 C.ar    1  UNL1        0.0114
     15 C          61.9757   82.8874   13.0311 C.ar    1  UNL1        0.0008
     16 C          59.9266   89.5116    7.3235 C.ar    1  UNL1        0.0039
     17 C          59.8723   88.0145    7.3985 C.ar    1  UNL1        0.0002
     18 C          60.5332   87.2962    8.5375 C.ar    1  UNL1        0.0015
     19 C          61.2484   88.0751    9.6014 C.ar    1  UNL1        0.0173
     20 C          61.3028   89.5722    9.5263 C.ar    1  UNL1        0.0015
     21 C          60.6419   90.2905    8.3874 C.ar    1  UNL1        0.0002
     22 C          61.4452   91.2102    4.9872 C.3     1  UNL1        0.0556
     23 C          59.9637   91.0107    5.1107 C.ar    1  UNL1        0.1006
     24 N          58.9201   91.5570    4.1820 N.ar    1  UNL1       -0.0817
     25 O          57.5770   91.1138    4.6819 O.2     1  UNL1       -0.3581
     26 C          57.7906   90.2937    5.9195 C.ar    1  UNL1        0.1544
     27 C          56.7176   89.6503    6.7469 C.3     1  UNL1        0.0754
     28 C          59.2657   90.2300    6.1845 C.ar    1  UNL1        0.0496
     29 C          63.8921   85.2016   14.1571 C.3     1  UNL1        0.1744
     30 C          65.3645   84.9189   14.1121 C.2     1  UNL1        0.0816
     31 O          66.3276   85.8482   14.7895 O.co2   1  UNL1       -0.5464
     32 O          65.8739   83.7070   13.3897 O.co2   1  UNL1       -0.5464
     33 O          63.0806   84.7659   15.3410 O.3     1  UNL1       -0.3510
     34 C          62.7475   85.7482   16.4245 C.3     1  UNL1        0.0938
     35 C          64.2016   85.8513   16.7780 C.3     1  UNL1        0.0297
     36 C          61.2935   85.6451   16.0710 C.3     1  UNL1        0.0297
     37 C          62.4144   86.7306   17.5081 C.3     1  UNL1        0.0297
@<TRIPOS>UNITY_ATOM_ATTR
31 1
charge -1
@<TRIPOS>BOND
     1    22    23    1
     2    23    24   ar
     3    24    25   ar
     4    25    26   ar
     5    26    27    1
     6    26    28   ar
     7    28    16    1
     8    16    17   ar
     9    17    18   ar
    10    18    19   ar
    11    19     1    1
    12     1     2   ar
    13     2     3   ar
    14     3     4    1
    15     3     5   ar
    16     5    29    1
    17    29    33    1
    18    33    34    1
    19    34    35    1
    20    34    36    1
    21    34    37    1
    22    29    30    1
    23    30    31   ar
    24    30    32   ar
    25     5     6   ar
    26     6     9    1
    27     9    10   ar
    28    10    11   ar
    29    11    12   ar
    30    12    13    1
    31    12    14   ar
    32    14    15   ar
    33     6     7   ar
    34     7     8    1
    35    19    20   ar
    36    20    21   ar
    37    28    23   ar
    38    21    16   ar
    39     7     1   ar
    40    15     9   ar
@<TRIPOS>MOLECULE
*****
 37 40 0 0 0
SMALL
GASTEIGER

@<TRIPOS>ATOM
      1 C          62.0298   86.1339    9.9568 C.ar    1  UNL1        0.0769
      2 N          62.7245   84.9225    9.4092 N.ar    1  UNL1       -0.2502
      3 C          63.4336   83.9810   10.3371 C.ar    1  UNL1        0.0579
      4 C          64.1283   82.7696    9.7895 C.3     1  UNL1        0.0518
      5 C          63.4479   84.2509   11.8125 C.ar    1  UNL1        0.0232
      6 C          62.7531   85.4624   12.3601 C.ar    1  UNL1       -0.0027
      7 C          62.0441   86.4039   11.4322 C.ar    1  UNL1       -0.0044
      8 C          61.3494   87.6153   11.9798 C.3     1  UNL1        0.0326
      9 C          62.7675   85.7324   13.8355 C.ar    1  UNL1       -0.0004
     10 C          61.8680   84.9537   14.7492 C.ar    1  UNL1        0.0008
     11 C          61.8823   85.2236   16.2246 C.ar    1  UNL1        0.0114
     12 C          62.7961   86.2722   16.7864 C.ar    1  UNL1        0.0577
     13 CL         62.8104   86.5422   18.2619 Cl      1  UNL1       -0.0822
     14 C          63.6955   87.0508   15.8728 C.ar    1  UNL1        0.0114
     15 C          63.6812   86.7809   14.3973 C.ar    1  UNL1        0.0008
     16 C          59.9027   88.9583    7.1733 C.ar    1  UNL1        0.0039
     17 C          59.8342   87.4787    6.9367 C.ar    1  UNL1        0.0002
     18 C          60.5432   86.5372    7.8646 C.ar    1  UNL1        0.0015
     19 C          61.3208   87.0754    9.0289 C.ar    1  UNL1        0.0173
     20 C          61.3893   88.5550    9.2655 C.ar    1  UNL1        0.0015
     21 C          60.6803   89.4965    8.3376 C.ar    1  UNL1        0.0002
     22 C          61.3221   91.0193    5.0787 C.3     1  UNL1        0.0556
     23 C          59.8461   90.8471    5.2827 C.ar    1  UNL1        0.1006
     24 N          58.7634   91.5921    4.5597 N.ar    1  UNL1       -0.0817
     25 O          57.4417   91.1051    5.0756 O.2     1  UNL1       -0.3581
     26 C          57.7076   90.0593    6.1174 C.ar    1  UNL1        0.1544
     27 C          56.6698   89.3052    6.8948 C.3     1  UNL1        0.0754
     28 C          59.1937   89.8998    6.2454 C.ar    1  UNL1        0.0496
     29 C          64.1569   83.3095   12.7404 C.3     1  UNL1        0.1744
     30 C          64.9724   83.8496   13.8775 C.2     1  UNL1        0.0816
     31 O          66.1107   84.7877   13.6049 O.co2   1  UNL1       -0.5464
     32 O          64.6498   83.4515   15.2873 O.co2   1  UNL1       -0.5464
     33 O          64.0503   81.8280   12.5311 O.3     1  UNL1       -0.3510
     34 C          62.9517   81.0536   13.1968 C.3     1  UNL1        0.0938
     35 C          63.9651   80.3469   14.0472 C.3     1  UNL1        0.0297
     36 C          61.9382   81.7604   12.3463 C.3     1  UNL1        0.0297
     37 C          61.8529   80.2792   13.8625 C.3     1  UNL1        0.0297
@<TRIPOS>UNITY_ATOM_ATTR
31 1
charge -1
@<TRIPOS>BOND
     1    22    23    1
     2    23    24   ar
     3    24    25   ar
     4    25    26   ar
     5    26    27    1
     6    26    28   ar
     7    28    16    1
     8    16    17   ar
     9    17    18   ar
    10    18    19   ar
    11    19     1    1
    12     1     2   ar
    13     2     3   ar
    14     3     4    1
    15     3     5   ar
    16     5    29    1
    17    29    33    1
    18    33    34    1
    19    34    35    1
    20    34    36    1
    21    34    37    1
    22    29    30    1
    23    30    31   ar
    24    30    32   ar
    25     5     6   ar
    26     6     9    1
    27     9    10   ar
    28    10    11   ar
    29    11    12   ar
    30    12    13    1
    31    12    14   ar
    32    14    15   ar
    33     6     7   ar
    34     7     8    1
    35    19    20   ar
    36    20    21   ar
    37    28    23   ar
    38    21    16   ar
    39     7     1   ar
    40    15     9   ar
@<TRIPOS>MOLECULE
*****
 37 40 0 0 0
SMALL
GASTEIGER

@<TRIPOS>ATOM
      1 C          62.0309   86.1256    9.9629 C.ar    1  UNL1        0.0769
      2 N          62.7212   84.9107    9.4176 N.ar    1  UNL1       -0.2502
      3 C          63.4292   83.9698   10.3469 C.ar    1  UNL1        0.0579
      4 C          64.1195   82.7549    9.8015 C.3     1  UNL1        0.0518
      5 C          63.4469   84.2439   11.8215 C.ar    1  UNL1        0.0232
      6 C          62.7566   85.4589   12.3669 C.ar    1  UNL1       -0.0027
      7 C          62.0486   86.3997   11.4376 C.ar    1  UNL1       -0.0044
      8 C          61.3582   87.6147   11.9829 C.3     1  UNL1        0.0326
      9 C          62.7743   85.7330   13.8415 C.ar    1  UNL1       -0.0004
     10 C          63.6919   86.7807   14.3986 C.ar    1  UNL1        0.0008
     11 C          63.7096   87.0549   15.8732 C.ar    1  UNL1        0.0114
     12 C          62.8097   86.2812   16.7908 C.ar    1  UNL1        0.0577
     13 CL         62.8274   86.5554   18.2654 Cl      1  UNL1       -0.0822
     14 C          61.8921   85.2336   16.2336 C.ar    1  UNL1        0.0114
     15 C          61.8744   84.9595   14.7590 C.ar    1  UNL1        0.0008
     16 C          59.9068   88.9480    7.1751 C.ar    1  UNL1        0.0039
     17 C          59.8379   87.4682    6.9400 C.ar    1  UNL1        0.0002
     18 C          60.5459   86.5274    7.8692 C.ar    1  UNL1        0.0015
     19 C          61.3228   87.0664    9.0336 C.ar    1  UNL1        0.0173
     20 C          61.3917   88.5463    9.2688 C.ar    1  UNL1        0.0015
     21 C          60.6837   89.4870    8.3395 C.ar    1  UNL1        0.0002
     22 C          56.6756   89.3369    6.9343 C.3     1  UNL1        0.0556
     23 C          57.7135   90.0676    6.1352 C.ar    1  UNL1        0.1006
     24 N          57.4485   91.1053    5.0850 N.ar    1  UNL1       -0.0817
     25 O          58.7700   91.5680    4.5466 O.2     1  UNL1       -0.3581
     26 C          59.8516   90.8161    5.2640 C.ar    1  UNL1        0.1544
     27 C          61.3271   90.9654    5.0391 C.3     1  UNL1        0.0754
     28 C          59.1987   89.8888    6.2458 C.ar    1  UNL1        0.0496
     29 C          64.1549   83.3031   12.7508 C.3     1  UNL1        0.1744
     30 C          64.9744   83.8441   13.8846 C.2     1  UNL1        0.0816
     31 O          64.6603   83.4428   15.2954 O.co2   1  UNL1       -0.5464
     32 O          66.1082   84.7866   13.6078 O.co2   1  UNL1       -0.5464
     33 O          64.0434   81.8213   12.5462 O.3     1  UNL1       -0.3510
     34 C          62.9379   81.0539   13.2086 C.3     1  UNL1        0.0938
     35 C          63.9433   80.3501   14.0711 C.3     1  UNL1        0.0297
     36 C          61.9326   81.7576   12.3461 C.3     1  UNL1        0.0297
     37 C          61.8323   80.2864   13.8710 C.3     1  UNL1        0.0297
@<TRIPOS>UNITY_ATOM_ATTR
31 1
charge -1
@<TRIPOS>BOND
     1    22    23    1
     2    23    24   ar
     3    24    25   ar
     4    25    26   ar
     5    26    27    1
     6    26    28   ar
     7    28    16    1
     8    16    17   ar
     9    17    18   ar
    10    18    19   ar
    11    19     1    1
    12     1     2   ar
    13     2     3   ar
    14     3     4    1
    15     3     5   ar
    16     5    29    1
    17    29    33    1
    18    33    34    1
    19    34    35    1
    20    34    36    1
    21    34    37    1
    22    29    30    1
    23    30    31   ar
    24    30    32   ar
    25     5     6   ar
    26     6     9    1
    27     9    10   ar
    28    10    11   ar
    29    11    12   ar
    30    12    13    1
    31    12    14   ar
    32    14    15   ar
    33     6     7   ar
    34     7     8    1
    35    19    20   ar
    36    20    21   ar
    37    28    23   ar
    38    21    16   ar
    39     7     1   ar
    40    15     9   ar
@<TRIPOS>MOLECULE
*****
 37 40 0 0 0
SMALL
GASTEIGER

@<TRIPOS>ATOM
      1 C          63.0772   88.6870   11.5901 C.ar    1  UNL1        0.0769
      2 N          62.1982   89.2890   10.5342 N.ar    1  UNL1       -0.2502
      3 C          61.4312   88.4002    9.6004 C.ar    1  UNL1        0.0579
      4 C          60.5522   89.0023    8.5446 C.3     1  UNL1        0.0518
      5 C          61.5434   86.9094    9.7226 C.ar    1  UNL1        0.0232
      6 C          62.4224   86.3074   10.7785 C.ar    1  UNL1       -0.0027
      7 C          63.1893   87.1962   11.7122 C.ar    1  UNL1       -0.0044
      8 C          64.0684   86.5942   12.7681 C.3     1  UNL1        0.0326
      9 C          62.5345   84.8166   10.9006 C.ar    1  UNL1       -0.0004
     10 C          61.7309   84.0863   11.9355 C.ar    1  UNL1        0.0008
     11 C          61.8430   82.5955   12.0576 C.ar    1  UNL1        0.0114
     12 C          62.7588   81.8350   11.1448 C.ar    1  UNL1        0.0577
     13 CL         62.8709   80.3442   11.2670 Cl      1  UNL1       -0.0822
     14 C          63.5623   82.5653   10.1100 C.ar    1  UNL1        0.0114
     15 C          63.4502   84.0561    9.9879 C.ar    1  UNL1        0.0008
     16 C          65.3779   91.3532   14.3915 C.ar    1  UNL1        0.0039
     17 C          64.9639   89.9808   14.8330 C.ar    1  UNL1        0.0002
     18 C          64.1970   89.0921   13.8992 C.ar    1  UNL1        0.0015
     19 C          63.8441   89.5758   12.5239 C.ar    1  UNL1        0.0173
     20 C          64.2582   90.9482   12.0823 C.ar    1  UNL1        0.0015
     21 C          65.0251   91.8369   13.0161 C.ar    1  UNL1        0.0002
     22 C          68.4419   92.3933   13.9666 C.3     1  UNL1        0.0556
     23 C          67.5532   92.7200   15.1300 C.ar    1  UNL1        0.1006
     24 N          67.9168   93.5823   16.3023 N.ar    1  UNL1       -0.0817
     25 O          66.7332   93.6371   17.2222 O.2     1  UNL1       -0.3581
     26 C          65.6381   92.8088   16.6183 C.ar    1  UNL1        0.1544
     27 C          64.2755   92.5863   17.2046 C.3     1  UNL1        0.0754
     28 C          66.1449   92.2420   15.3253 C.ar    1  UNL1        0.0496
     29 C          60.7765   86.0206    8.7888 C.3     1  UNL1        0.1744
     30 C          59.3864   86.3960    8.3685 C.2     1  UNL1        0.0816
     31 O          58.9815   86.2814    6.9287 O.co2   1  UNL1       -0.5464
     32 O          58.4011   86.8860    9.3880 O.co2   1  UNL1       -0.5464
     33 O          61.3997   84.7565    8.2754 O.3     1  UNL1       -0.3510
     34 C          62.0424   84.7338    6.9203 C.3     1  UNL1        0.0938
     35 C          60.8561   83.9990    6.3700 C.3     1  UNL1        0.0297
     36 C          63.2286   85.4686    7.4706 C.3     1  UNL1        0.0297
     37 C          62.6851   84.7111    5.5651 C.3     1  UNL1        0.0297
@<TRIPOS>UNITY_ATOM_ATTR
31 1
charge -1
@<TRIPOS>BOND
     1    22    23    1
     2    23    24   ar
     3    24    25   ar
     4    25    26   ar
     5    26    27    1
     6    26    28   ar
     7    28    16    1
     8    16    17   ar
     9    17    18   ar
    10    18    19   ar
    11    19     1    1
    12     1     2   ar
    13     2     3   ar
    14     3     4    1
    15     3     5   ar
    16     5    29    1
    17    29    33    1
    18    33    34    1
    19    34    35    1
    20    34    36    1
    21    34    37    1
    22    29    30    1
    23    30    31   ar
    24    30    32   ar
    25     5     6   ar
    26     6     9    1
    27     9    10   ar
    28    10    11   ar
    29    11    12   ar
    30    12    13    1
    31    12    14   ar
    32    14    15   ar
    33     6     7   ar
    34     7     8    1
    35    19    20   ar
    36    20    21   ar
    37    28    23   ar
    38    21    16   ar
    39     7     1   ar
    40    15     9   ar
@<TRIPOS>MOLECULE
*****
 37 40 0 0 0
SMALL
GASTEIGER

@<TRIPOS>ATOM
      1 C          61.0141   92.0545    3.1856 C.ar    1  UNL1        0.0769
      2 N          62.4381   92.2240    2.7456 N.ar    1  UNL1       -0.2502
      3 C          62.7511   93.0007    1.5010 C.ar    1  UNL1        0.0579
      4 C          64.1750   93.1702    1.0610 C.3     1  UNL1        0.0518
      5 C          61.6402   93.6078    0.6965 C.ar    1  UNL1        0.0232
      6 C          60.2162   93.4383    1.1366 C.ar    1  UNL1       -0.0027
      7 C          59.9032   92.6617    2.3811 C.ar    1  UNL1       -0.0044
      8 C          58.4792   92.4921    2.8212 C.3     1  UNL1        0.0326
      9 C          59.1052   94.0454    0.3321 C.ar    1  UNL1       -0.0004
     10 C          58.9717   95.5369    0.2437 C.ar    1  UNL1        0.0008
     11 C          57.8607   96.1440   -0.5608 C.ar    1  UNL1        0.0114
     12 C          56.8833   95.2596   -1.2769 C.ar    1  UNL1        0.0577
     13 CL         55.7724   95.8668   -2.0814 Cl      1  UNL1       -0.0822
     14 C          57.0169   93.7683   -1.1884 C.ar    1  UNL1        0.0114
     15 C          58.1278   93.1611   -0.3839 C.ar    1  UNL1        0.0008
     16 C          60.0750   89.7246    6.9191 C.ar    1  UNL1        0.0039
     17 C          58.9612   90.2385    6.0557 C.ar    1  UNL1        0.0002
     18 C          59.2743   91.0151    4.8113 C.ar    1  UNL1        0.0015
     19 C          60.7011   91.2779    4.4301 C.ar    1  UNL1        0.0173
     20 C          61.8148   90.7640    5.2935 C.ar    1  UNL1        0.0015
     21 C          61.5018   89.9873    6.5380 C.ar    1  UNL1        0.0002
     22 C          60.4084   90.7959    9.9836 C.3     1  UNL1        0.0556
     23 C          59.9152   89.4404    9.5722 C.ar    1  UNL1        0.1006
     24 N          59.4887   88.3393   10.4972 N.ar    1  UNL1       -0.0817
     25 O          59.0718   87.1663    9.6603 O.2     1  UNL1       -0.3581
     26 C          59.2407   87.5425    8.2182 C.ar    1  UNL1        0.1544
     27 C          58.9409   86.6669    7.0377 C.3     1  UNL1        0.0754
     28 C          59.7619   88.9480    8.1637 C.ar    1  UNL1        0.0496
     29 C          61.9531   94.3845   -0.5480 C.3     1  UNL1        0.1744
     30 C          61.9937   93.6884   -1.8761 C.2     1  UNL1        0.0816
     31 O          63.2962   93.1742   -2.4139 O.co2   1  UNL1       -0.5464
     32 O          60.7318   93.5065   -2.6664 O.co2   1  UNL1       -0.5464
     33 O          62.2255   95.8572   -0.4644 O.3     1  UNL1       -0.3510
     34 C          63.4277   96.3564    0.2808 C.3     1  UNL1        0.0938
     35 C          64.2881   96.0669   -0.9133 C.3     1  UNL1        0.0297
     36 C          62.5673   96.6460    1.4748 C.3     1  UNL1        0.0297
     37 C          64.6300   96.8557    1.0260 C.3     1  UNL1        0.0297
@<TRIPOS>UNITY_ATOM_ATTR
31 1
charge -1
@<TRIPOS>BOND
     1    22    23    1
     2    23    24   ar
     3    24    25   ar
     4    25    26   ar
     5    26    27    1
     6    26    28   ar
     7    28    16    1
     8    16    17   ar
     9    17    18   ar
    10    18    19   ar
    11    19     1    1
    12     1     2   ar
    13     2     3   ar
    14     3     4    1
    15     3     5   ar
    16     5    29    1
    17    29    33    1
    18    33    34    1
    19    34    35    1
    20    34    36    1
    21    34    37    1
    22    29    30    1
    23    30    31   ar
    24    30    32   ar
    25     5     6   ar
    26     6     9    1
    27     9    10   ar
    28    10    11   ar
    29    11    12   ar
    30    12    13    1
    31    12    14   ar
    32    14    15   ar
    33     6     7   ar
    34     7     8    1
    35    19    20   ar
    36    20    21   ar
    37    28    23   ar
    38    21    16   ar
    39     7     1   ar
    40    15     9   ar
@<TRIPOS>MOLECULE
*****
 37 40 0 0 0
SMALL
GASTEIGER

@<TRIPOS>ATOM
      1 C          59.8666   93.1680    2.8967 C.ar    1  UNL1        0.0769
      2 N          60.4883   94.5253    3.0412 N.ar    1  UNL1       -0.2502
      3 C          60.4591   95.4898    1.8926 C.ar    1  UNL1        0.0579
      4 C          61.0809   96.8471    2.0371 C.3     1  UNL1        0.0518
      5 C          59.8082   95.0967    0.5996 C.ar    1  UNL1        0.0232
      6 C          59.1864   93.7392    0.4552 C.ar    1  UNL1       -0.0027
      7 C          59.2156   92.7749    1.6038 C.ar    1  UNL1       -0.0044
      8 C          58.5939   91.4174    1.4593 C.3     1  UNL1        0.0326
      9 C          58.5355   93.3462   -0.8377 C.ar    1  UNL1       -0.0004
     10 C          57.0403   93.3574   -0.9585 C.ar    1  UNL1        0.0008
     11 C          56.3894   92.9644   -2.2515 C.ar    1  UNL1        0.0114
     12 C          57.2336   92.5601   -3.4237 C.ar    1  UNL1        0.0577
     13 CL         56.5826   92.1671   -4.7167 Cl      1  UNL1       -0.0822
     14 C          58.7286   92.5489   -3.3029 C.ar    1  UNL1        0.0114
     15 C          59.3796   92.9420   -2.0099 C.ar    1  UNL1        0.0008
     16 C          59.9542   90.2748    6.3423 C.ar    1  UNL1        0.0039
     17 C          61.2059   90.5517    5.5635 C.ar    1  UNL1        0.0002
     18 C          61.1767   91.5161    4.4150 C.ar    1  UNL1        0.0015
     19 C          59.8958   92.2035    4.0453 C.ar    1  UNL1        0.0173
     20 C          58.6441   91.9266    4.8240 C.ar    1  UNL1        0.0015
     21 C          58.6733   90.9622    5.9725 C.ar    1  UNL1        0.0002
     22 C          61.2938   90.8164    9.2684 C.3     1  UNL1        0.0556
     23 C          60.5991   89.5593    8.8358 C.ar    1  UNL1        0.1006
     24 N          60.3982   88.3305    9.6722 N.ar    1  UNL1       -0.0817
     25 O          59.6583   87.3220    8.8442 O.2     1  UNL1       -0.3581
     26 C          59.4019   87.9276    7.4960 C.ar    1  UNL1        0.1544
     27 C          58.6892   87.2666    6.3537 C.3     1  UNL1        0.0754
     28 C          59.9834   89.3104    7.4908 C.ar    1  UNL1        0.0496
     29 C          59.7790   96.0610   -0.5489 C.3     1  UNL1        0.1744
     30 C          58.4682   96.5897   -1.0511 C.2     1  UNL1        0.0816
     31 O          57.3477   96.8533   -0.0894 O.co2   1  UNL1       -0.5464
     32 O          58.2778   96.8546   -2.5153 O.co2   1  UNL1       -0.5464
     33 O          61.0606   96.4968   -1.1951 O.3     1  UNL1       -0.3510
     34 C          61.8555   95.5244   -2.0152 C.3     1  UNL1        0.0938
     35 C          61.1451   95.9873   -3.2526 C.3     1  UNL1        0.0297
     36 C          62.5658   95.0615   -0.7779 C.3     1  UNL1        0.0297
     37 C          62.6504   94.5519   -2.8353 C.3     1  UNL1        0.0297
@<TRIPOS>UNITY_ATOM_ATTR
31 1
charge -1
@<TRIPOS>BOND
     1    22    23    1
     2    23    24   ar
     3    24    25   ar
     4    25    26   ar
     5    26    27    1
     6    26    28   ar
     7    28    16    1
     8    16    17   ar
     9    17    18   ar
    10    18    19   ar
    11    19     1    1
    12     1     2   ar
    13     2     3   ar
    14     3     4    1
    15     3     5   ar
    16     5    29    1
    17    29    33    1
    18    33    34    1
    19    34    35    1
    20    34    36    1
    21    34    37    1
    22    29    30    1
    23    30    31   ar
    24    30    32   ar
    25     5     6   ar
    26     6     9    1
    27     9    10   ar
    28    10    11   ar
    29    11    12   ar
    30    12    13    1
    31    12    14   ar
    32    14    15   ar
    33     6     7   ar
    34     7     8    1
    35    19    20   ar
    36    20    21   ar
    37    28    23   ar
    38    21    16   ar
    39     7     1   ar
    40    15     9   ar
@<TRIPOS>MOLECULE
*****
 37 40 0 0 0
SMALL
GASTEIGER

@<TRIPOS>ATOM
      1 C          60.8552   92.3258    2.8472 C.ar    1  UNL1        0.0769
      2 N          62.2424   92.7615    2.4788 N.ar    1  UNL1       -0.2502
      3 C          62.4769   93.5212    1.2068 C.ar    1  UNL1        0.0579
      4 C          63.8641   93.9569    0.8383 C.3     1  UNL1        0.0518
      5 C          61.3242   93.8453    0.3033 C.ar    1  UNL1        0.0232
      6 C          59.9369   93.4095    0.6718 C.ar    1  UNL1       -0.0027
      7 C          59.7025   92.6499    1.9437 C.ar    1  UNL1       -0.0044
      8 C          58.3152   92.2141    2.3123 C.3     1  UNL1        0.0326
      9 C          58.7842   93.7336   -0.2316 C.ar    1  UNL1       -0.0004
     10 C          58.1942   95.1127   -0.2294 C.ar    1  UNL1        0.0008
     11 C          57.0415   95.4368   -1.1329 C.ar    1  UNL1        0.0114
     12 C          56.4788   94.3816   -2.0386 C.ar    1  UNL1        0.0577
     13 CL         55.3261   94.7057   -2.9420 Cl      1  UNL1       -0.0822
     14 C          57.0688   93.0026   -2.0407 C.ar    1  UNL1        0.0114
     15 C          58.2215   92.6786   -1.1373 C.ar    1  UNL1        0.0008
     16 C          60.1516   90.0467    6.6630 C.ar    1  UNL1        0.0039
     17 C          61.5200   90.0777    6.0494 C.ar    1  UNL1        0.0002
     18 C          61.7545   90.8374    4.7775 C.ar    1  UNL1        0.0015
     19 C          60.6206   91.5661    4.1192 C.ar    1  UNL1        0.0173
     20 C          59.2523   91.5351    4.7328 C.ar    1  UNL1        0.0015
     21 C          59.0178   90.7754    6.0047 C.ar    1  UNL1        0.0002
     22 C          61.3298   90.8224    9.6058 C.3     1  UNL1        0.0556
     23 C          60.4586   89.6435    9.2876 C.ar    1  UNL1        0.1006
     24 N          59.9760   88.6142   10.2662 N.ar    1  UNL1       -0.0817
     25 O          59.1362   87.6214    9.5184 O.2     1  UNL1       -0.3581
     26 C          59.0998   88.0372    8.0776 C.ar    1  UNL1        0.1544
     27 C          58.3736   87.3279    6.9734 C.3     1  UNL1        0.0754
     28 C          59.9171   89.2869    7.9350 C.ar    1  UNL1        0.0496
     29 C          61.5587   94.6049   -0.9686 C.3     1  UNL1        0.1744
     30 C          61.5549   96.1049   -0.9579 C.2     1  UNL1        0.0816
     31 O          60.3867   96.8560   -1.5245 O.co2   1  UNL1       -0.5464
     32 O          62.7193   96.8538   -0.3804 O.co2   1  UNL1       -0.5464
     33 O          61.7970   93.8647   -2.2513 O.3     1  UNL1       -0.3510
     34 C          61.7382   94.5945   -3.5604 C.3     1  UNL1        0.0938
     35 C          60.2689   94.3076   -3.6543 C.3     1  UNL1        0.0297
     36 C          63.2075   94.8813   -3.4666 C.3     1  UNL1        0.0297
     37 C          61.6793   95.3243   -4.8697 C.3     1  UNL1        0.0297
@<TRIPOS>UNITY_ATOM_ATTR
31 1
charge -1
@<TRIPOS>BOND
     1    22    23    1
     2    23    24   ar
     3    24    25   ar
     4    25    26   ar
     5    26    27    1
     6    26    28   ar
     7    28    16    1
     8    16    17   ar
     9    17    18   ar
    10    18    19   ar
    11    19     1    1
    12     1     2   ar
    13     2     3   ar
    14     3     4    1
    15     3     5   ar
    16     5    29    1
    17    29    33    1
    18    33    34    1
    19    34    35    1
    20    34    36    1
    21    34    37    1
    22    29    30    1
    23    30    31   ar
    24    30    32   ar
    25     5     6   ar
    26     6     9    1
    27     9    10   ar
    28    10    11   ar
    29    11    12   ar
    30    12    13    1
    31    12    14   ar
    32    14    15   ar
    33     6     7   ar
    34     7     8    1
    35    19    20   ar
    36    20    21   ar
    37    28    23   ar
    38    21    16   ar
    39     7     1   ar
    40    15     9   ar
@<TRIPOS>MOLECULE
*****
 37 40 0 0 0
SMALL
GASTEIGER

@<TRIPOS>ATOM
      1 C          64.1165   89.0474   12.6205 C.ar    1  UNL1        0.0769
      2 N          63.4948   89.8209   11.4957 N.ar    1  UNL1       -0.2502
      3 C          63.9081   91.2406   11.2434 C.ar    1  UNL1        0.0579
      4 C          63.2864   92.0141   10.1187 C.3     1  UNL1        0.0518
      5 C          64.9430   91.8868   12.1160 C.ar    1  UNL1        0.0232
      6 C          65.5647   91.1132   13.2409 C.ar    1  UNL1       -0.0027
      7 C          65.1514   89.6935   13.4931 C.ar    1  UNL1       -0.0044
      8 C          65.7731   88.9200   14.6179 C.3     1  UNL1        0.0326
      9 C          66.5996   91.7594   14.1134 C.ar    1  UNL1       -0.0004
     10 C          66.2505   92.1685   15.5138 C.ar    1  UNL1        0.0008
     11 C          67.2855   92.8146   16.3864 C.ar    1  UNL1        0.0114
     12 C          68.6695   93.0518   15.8586 C.ar    1  UNL1        0.0577
     13 CL         69.7044   93.6979   16.7312 Cl      1  UNL1       -0.0822
     14 C          69.0184   92.6427   14.4583 C.ar    1  UNL1        0.0114
     15 C          67.9835   91.9965   13.5857 C.ar    1  UNL1        0.0008
     16 C          62.8767   84.7882   13.3772 C.ar    1  UNL1        0.0039
     17 C          62.3460   85.5227   12.1819 C.ar    1  UNL1        0.0002
     18 C          62.7592   86.9424   11.9296 C.ar    1  UNL1        0.0015
     19 C          63.7032   87.6276   12.8728 C.ar    1  UNL1        0.0173
     20 C          64.2339   86.8931   14.0681 C.ar    1  UNL1        0.0015
     21 C          63.8206   85.4734   14.3203 C.ar    1  UNL1        0.0002
     22 C          62.6439   82.4305   11.1329 C.3     1  UNL1        0.0556
     23 C          62.3564   82.2848   12.5979 C.ar    1  UNL1        0.1006
     24 N          61.9115   81.0298   13.2885 N.ar    1  UNL1       -0.0817
     25 O          61.7435   81.3378   14.7469 O.2     1  UNL1       -0.3581
     26 C          62.0846   82.7832   14.9576 C.ar    1  UNL1        0.1544
     27 C          62.0525   83.5149   16.2666 C.3     1  UNL1        0.0754
     28 C          62.4634   83.3685   13.6294 C.ar    1  UNL1        0.0496
     29 C          65.3563   93.3065   11.8638 C.3     1  UNL1        0.1744
     30 C          65.7161   94.1986   13.0147 C.2     1  UNL1        0.0816
     31 O          66.5288   95.4370   12.7783 O.co2   1  UNL1       -0.5464
     32 O          65.2633   93.8523   14.4022 O.co2   1  UNL1       -0.5464
     33 O          65.4098   93.8341   10.4607 O.3     1  UNL1       -0.3510
     34 C          66.7345   94.1000    9.8094 C.3     1  UNL1        0.0938
     35 C          67.1589   92.6904   10.0971 C.3     1  UNL1        0.0297
     36 C          66.3101   95.5096    9.5217 C.3     1  UNL1        0.0297
     37 C          68.0593   94.3660    9.1580 C.3     1  UNL1        0.0297
@<TRIPOS>UNITY_ATOM_ATTR
31 1
charge -1
@<TRIPOS>BOND
     1    22    23    1
     2    23    24   ar
     3    24    25   ar
     4    25    26   ar
     5    26    27    1
     6    26    28   ar
     7    28    16    1
     8    16    17   ar
     9    17    18   ar
    10    18    19   ar
    11    19     1    1
    12     1     2   ar
    13     2     3   ar
    14     3     4    1
    15     3     5   ar
    16     5    29    1
    17    29    33    1
    18    33    34    1
    19    34    35    1
    20    34    36    1
    21    34    37    1
    22    29    30    1
    23    30    31   ar
    24    30    32   ar
    25     5     6   ar
    26     6     9    1
    27     9    10   ar
    28    10    11   ar
    29    11    12   ar
    30    12    13    1
    31    12    14   ar
    32    14    15   ar
    33     6     7   ar
    34     7     8    1
    35    19    20   ar
    36    20    21   ar
    37    28    23   ar
    38    21    16   ar
    39     7     1   ar
    40    15     9   ar
