@<TRIPOS>MOLECULE
*****
 32 35 0 0 0
SMALL
GASTEIGER

@<TRIPOS>ATOM
      1 C          65.6674   91.8677   12.9985 C.ar    1  UNL1        0.0951
      2 C          65.8079   90.9370   14.1665 C.ar    1  UNL1        0.1454
      3 F          67.0601   90.9531   14.9920 F       1  UNL1       -0.2040
      4 C          64.6960   89.9902   14.5088 C.ar    1  UNL1        0.0312
      5 C          63.4437   89.9741   13.6832 C.ar    1  UNL1        0.0204
      6 C          63.3033   90.9048   12.5153 C.ar    1  UNL1        0.0924
      7 C          64.4152   91.8516   12.1730 C.ar    1  UNL1        0.1598
      8 F          64.2749   92.7824   11.0051 F       1  UNL1       -0.2026
      9 O          67.4203   93.6393   13.7327 O.2     1  UNL1       -0.2864
     10 C          66.7794   92.8146   12.6562 C.2     1  UNL1        0.2016
     11 C          67.2503   92.9367   11.2372 C.ar    1  UNL1        0.0620
     12 C          67.9232   91.8619   10.4360 C.ar    1  UNL1        0.1038
     13 N          68.2198   92.4160    9.0741 N.ar    1  UNL1       -0.2268
     14 C          67.7301   93.8332    9.0335 C.ar    1  UNL1        0.1415
     15 N          67.7525   94.8723    7.9519 N.ar    1  UNL1       -0.3374
     16 C          67.1756   96.2331    8.2073 C.ar    1  UNL1        0.0744
     17 C          66.5765   96.5550    9.5442 C.ar    1  UNL1        0.0300
     18 C          66.5541   95.5159   10.6258 C.ar    1  UNL1        0.0622
     19 CL         65.9550   95.8378   11.9628 Cl      1  UNL1       -0.0821
     20 C          67.1310   94.1551   10.3704 C.ar    1  UNL1        0.0491
     21 H          68.1457   94.6611    7.0744 H       1  UNL1        0.1674
     22 N          62.0510   90.8887   11.6897 N.pl3   1  UNL1       -0.2128
     23 H          61.4328   91.6544   11.7182 H       1  UNL1        0.1738
     24 S          61.7407   89.7060   10.8209 S.O2    1  UNL1        0.0751
     25 O          62.7638   90.1683    9.8262 O.2     1  UNL1       -0.1499
     26 O          60.7176   89.2437   11.8156 O.2     1  UNL1       -0.1499
     27 C          61.4303   88.5233    9.9521 C.ar    1  UNL1        0.1442
     28 C          62.3979   87.3802    9.8677 C.ar    1  UNL1        0.0234
     29 C          62.0876   86.1974    8.9989 C.ar    1  UNL1        0.0221
     30 C          60.8096   86.1577    8.2145 C.ar    1  UNL1        0.0990
     31 N          59.8421   87.3009    8.2989 N.ar    1  UNL1       -0.2409
     32 C          60.1524   88.4836    9.1677 C.ar    1  UNL1        0.1190
@<TRIPOS>BOND
     1     9    10    2
     2    10     1    1
     3     1     2   ar
     4     2     3    1
     5     2     4   ar
     6     4     5   ar
     7     5     6   ar
     8     6    22    1
     9    22    24    1
    10    24    25    2
    11    24    26    2
    12    24    27    1
    13    27    28   ar
    14    28    29   ar
    15    29    30   ar
    16    30    31   ar
    17    31    32   ar
    18     6     7   ar
    19     7     8    1
    20    10    11    1
    21    11    12   ar
    22    12    13   ar
    23    13    14   ar
    24    14    15   ar
    25    15    16   ar
    26    16    17   ar
    27    17    18   ar
    28    18    19    1
    29    18    20   ar
    30     7     1   ar
    31    20    11   ar
    32    32    27   ar
    33    20    14    1
    34    22    23    1
    35    15    21    1
@<TRIPOS>MOLECULE
*****
 32 35 0 0 0
SMALL
GASTEIGER

@<TRIPOS>ATOM
      1 C          65.6710   91.7216   12.9274 C.ar    1  UNL1        0.0951
      2 C          65.7339   90.9375   14.2046 C.ar    1  UNL1        0.1454
      3 F          66.9794   90.9635   15.0401 F       1  UNL1       -0.2040
      4 C          64.5512   90.1276   14.6464 C.ar    1  UNL1        0.0312
      5 C          63.3056   90.1017   13.8110 C.ar    1  UNL1        0.0204
      6 C          63.2428   90.8857   12.5337 C.ar    1  UNL1        0.0924
      7 C          64.4255   91.6956   12.0920 C.ar    1  UNL1        0.1598
      8 F          64.3627   92.4797   10.8147 F       1  UNL1       -0.2026
      9 O          68.2228   91.9188   12.4811 O.2     1  UNL1       -0.2864
     10 C          66.8538   92.5316   12.4856 C.2     1  UNL1        0.2016
     11 C          66.6673   93.9543   12.0483 C.ar    1  UNL1        0.0620
     12 C          66.1901   95.0860   12.9093 C.ar    1  UNL1        0.1038
     13 N          66.1532   96.3261   12.0663 N.ar    1  UNL1       -0.2268
     14 C          66.6076   95.9609   10.6843 C.ar    1  UNL1        0.1415
     15 N          66.7731   96.7737    9.4345 N.ar    1  UNL1       -0.3374
     16 C          67.2563   96.1206    8.1736 C.ar    1  UNL1        0.0744
     17 C          67.5741   94.6547    8.1625 C.ar    1  UNL1        0.0300
     18 C          67.4086   93.8419    9.4122 C.ar    1  UNL1        0.0622
     19 CL         67.7264   92.3759    9.4010 Cl      1  UNL1       -0.0821
     20 C          66.9254   94.4949   10.6731 C.ar    1  UNL1        0.0491
     21 H          66.5646   97.7358    9.4419 H       1  UNL1        0.1674
     22 N          61.9973   90.8598   11.6983 N.pl3   1  UNL1       -0.2128
     23 H          61.3740   91.6216   11.7200 H       1  UNL1        0.1738
     24 S          61.7013   89.6732   10.8297 S.O2    1  UNL1        0.0751
     25 O          60.7765   89.1346   11.8807 O.2     1  UNL1       -0.1499
     26 O          62.6262   90.2118    9.7788 O.2     1  UNL1       -0.1499
     27 C          61.4055   88.4867    9.9611 C.ar    1  UNL1        0.1442
     28 C          62.4060   87.3753    9.8433 C.ar    1  UNL1        0.0234
     29 C          62.1103   86.1887    8.9747 C.ar    1  UNL1        0.0221
     30 C          60.8139   86.1134    8.2238 C.ar    1  UNL1        0.0990
     31 N          59.8134   87.2248    8.3416 N.ar    1  UNL1       -0.2409
     32 C          60.1091   88.4114    9.2102 C.ar    1  UNL1        0.1190
@<TRIPOS>BOND
     1     9    10    2
     2    10     1    1
     3     1     2   ar
     4     2     3    1
     5     2     4   ar
     6     4     5   ar
     7     5     6   ar
     8     6    22    1
     9    22    24    1
    10    24    25    2
    11    24    26    2
    12    24    27    1
    13    27    28   ar
    14    28    29   ar
    15    29    30   ar
    16    30    31   ar
    17    31    32   ar
    18     6     7   ar
    19     7     8    1
    20    10    11    1
    21    11    12   ar
    22    12    13   ar
    23    13    14   ar
    24    14    15   ar
    25    15    16   ar
    26    16    17   ar
    27    17    18   ar
    28    18    19    1
    29    18    20   ar
    30     7     1   ar
    31    20    11   ar
    32    32    27   ar
    33    20    14    1
    34    22    23    1
    35    15    21    1
@<TRIPOS>MOLECULE
*****
 32 35 0 0 0
SMALL
GASTEIGER

@<TRIPOS>ATOM
      1 C          61.5208   88.3140   10.8940 C.ar    1  UNL1        0.0951
      2 C          60.4381   88.1790    9.8647 C.ar    1  UNL1        0.1454
      3 F          59.4529   89.2918    9.6620 F       1  UNL1       -0.2040
      4 C          60.3406   86.9311    9.0381 C.ar    1  UNL1        0.0312
      5 C          61.3257   85.8183    9.2408 C.ar    1  UNL1        0.0204
      6 C          62.4084   85.9533   10.2702 C.ar    1  UNL1        0.0924
      7 C          62.5059   87.2011   11.0967 C.ar    1  UNL1        0.1598
      8 F          63.5886   87.3362   12.1261 F       1  UNL1       -0.2026
      9 O          60.5931   89.8425   12.7790 O.2     1  UNL1       -0.2864
     10 C          61.6184   89.5619   11.7207 C.2     1  UNL1        0.2016
     11 C          62.7412   90.5291   11.4890 C.ar    1  UNL1        0.0620
     12 C          62.9941   91.3008   10.2278 C.ar    1  UNL1        0.1038
     13 N          64.2175   92.1430   10.4372 N.ar    1  UNL1       -0.2268
     14 C          64.7208   91.8919   11.8278 C.ar    1  UNL1        0.1415
     15 N          65.8919   92.4427   12.5861 N.ar    1  UNL1       -0.3374
     16 C          66.1506   91.9960   13.9944 C.ar    1  UNL1        0.0744
     17 C          65.2382   90.9985   14.6445 C.ar    1  UNL1        0.0300
     18 C          64.0671   90.4478   13.8862 C.ar    1  UNL1        0.0622
     19 CL         63.1547   89.4503   14.5362 Cl      1  UNL1       -0.0821
     20 C          63.8083   90.8945   12.4779 C.ar    1  UNL1        0.0491
     21 H          66.4908   93.0974   12.1594 H       1  UNL1        0.1674
     22 N          63.3935   84.8404   10.4729 N.pl3   1  UNL1       -0.2128
     23 H          64.2610   84.8601   10.0078 H       1  UNL1        0.1738
     24 S          63.0569   83.6976   11.3842 S.O2    1  UNL1        0.0751
     25 O          63.7471   82.7489   10.4495 O.2     1  UNL1       -0.1499
     26 O          62.3667   84.6462   12.3189 O.2     1  UNL1       -0.1499
     27 C          62.7203   82.5548   12.2956 C.ar    1  UNL1        0.1442
     28 C          62.7907   81.1450   11.7882 C.ar    1  UNL1        0.0234
     29 C          62.4541   80.0021   12.6995 C.ar    1  UNL1        0.0221
     30 C          62.0470   80.2690   14.1183 C.ar    1  UNL1        0.0990
     31 N          61.9765   81.6789   14.6257 N.ar    1  UNL1       -0.2409
     32 C          62.3132   82.8218   13.7144 C.ar    1  UNL1        0.1190
@<TRIPOS>BOND
     1     9    10    2
     2    10     1    1
     3     1     2   ar
     4     2     3    1
     5     2     4   ar
     6     4     5   ar
     7     5     6   ar
     8     6    22    1
     9    22    24    1
    10    24    25    2
    11    24    26    2
    12    24    27    1
    13    27    28   ar
    14    28    29   ar
    15    29    30   ar
    16    30    31   ar
    17    31    32   ar
    18     6     7   ar
    19     7     8    1
    20    10    11    1
    21    11    12   ar
    22    12    13   ar
    23    13    14   ar
    24    14    15   ar
    25    15    16   ar
    26    16    17   ar
    27    17    18   ar
    28    18    19    1
    29    18    20   ar
    30     7     1   ar
    31    20    11   ar
    32    32    27   ar
    33    20    14    1
    34    22    23    1
    35    15    21    1
@<TRIPOS>MOLECULE
*****
 32 35 0 0 0
SMALL
GASTEIGER

@<TRIPOS>ATOM
      1 C          63.4674   89.3009   12.4073 C.ar    1  UNL1        0.0951
      2 C          62.5833   88.9826   11.2381 C.ar    1  UNL1        0.1454
      3 F          62.1583   90.0734   10.3003 F       1  UNL1       -0.2040
      4 C          62.1244   87.5734   11.0067 C.ar    1  UNL1        0.0312
      5 C          62.5494   86.4826   11.9445 C.ar    1  UNL1        0.0204
      6 C          63.4335   86.8009   13.1137 C.ar    1  UNL1        0.0924
      7 C          63.8924   88.2101   13.3451 C.ar    1  UNL1        0.1598
      8 F          64.7765   88.5285   14.5143 F       1  UNL1       -0.2026
      9 O          64.0973   91.6435   11.4772 O.2     1  UNL1       -0.2864
     10 C          63.9264   90.7101   12.6388 C.2     1  UNL1        0.2016
     11 C          64.2145   91.1858   14.0319 C.ar    1  UNL1        0.0620
     12 C          63.3068   91.0436   15.2175 C.ar    1  UNL1        0.1038
     13 N          63.9923   91.6571   16.4023 N.ar    1  UNL1       -0.2268
     14 C          65.3237   92.1785   15.9489 C.ar    1  UNL1        0.1415
     15 N          66.4286   92.8808   16.6808 N.ar    1  UNL1       -0.3374
     16 C          67.6710   93.2919   15.9477 C.ar    1  UNL1        0.0744
     17 C          67.8084   93.0006   14.4827 C.ar    1  UNL1        0.0300
     18 C          66.7034   92.2983   13.7508 C.ar    1  UNL1        0.0622
     19 CL         66.8408   92.0070   12.2857 Cl      1  UNL1       -0.0821
     20 C          65.4610   91.8872   14.4839 C.ar    1  UNL1        0.0491
     21 H          66.3385   93.0720   17.6424 H       1  UNL1        0.1674
     22 N          63.8585   85.7101   14.0515 N.pl3   1  UNL1       -0.2128
     23 H          64.4279   85.9212   14.8263 H       1  UNL1        0.1738
     24 S          63.4160   84.2976   13.8086 S.O2    1  UNL1        0.0751
     25 O          62.1430   84.5682   14.5544 O.2     1  UNL1       -0.1499
     26 O          64.6890   84.0270   13.0628 O.2     1  UNL1       -0.1499
     27 C          62.9735   82.8851   13.5657 C.ar    1  UNL1        0.1442
     28 C          61.9479   82.2559   14.4614 C.ar    1  UNL1        0.0234
     29 C          61.5054   80.8433   14.2186 C.ar    1  UNL1        0.0221
     30 C          62.0885   80.0600   13.0800 C.ar    1  UNL1        0.0990
     31 N          63.1141   80.6892   12.1843 N.ar    1  UNL1       -0.2409
     32 C          63.5566   82.1018   12.4271 C.ar    1  UNL1        0.1190
@<TRIPOS>BOND
     1     9    10    2
     2    10     1    1
     3     1     2   ar
     4     2     3    1
     5     2     4   ar
     6     4     5   ar
     7     5     6   ar
     8     6    22    1
     9    22    24    1
    10    24    25    2
    11    24    26    2
    12    24    27    1
    13    27    28   ar
    14    28    29   ar
    15    29    30   ar
    16    30    31   ar
    17    31    32   ar
    18     6     7   ar
    19     7     8    1
    20    10    11    1
    21    11    12   ar
    22    12    13   ar
    23    13    14   ar
    24    14    15   ar
    25    15    16   ar
    26    16    17   ar
    27    17    18   ar
    28    18    19    1
    29    18    20   ar
    30     7     1   ar
    31    20    11   ar
    32    32    27   ar
    33    20    14    1
    34    22    23    1
    35    15    21    1
@<TRIPOS>MOLECULE
*****
 32 35 0 0 0
SMALL
GASTEIGER

@<TRIPOS>ATOM
      1 C          62.7258   86.6682   12.0712 C.ar    1  UNL1        0.0951
      2 C          61.7316   86.3403   10.9969 C.ar    1  UNL1        0.1454
      3 F          61.5185   84.9146   10.5821 F       1  UNL1       -0.2040
      4 C          60.9506   87.4380   10.3375 C.ar    1  UNL1        0.0312
      5 C          61.1638   88.8637   10.7522 C.ar    1  UNL1        0.0204
      6 C          62.1579   89.1916   11.8265 C.ar    1  UNL1        0.0924
      7 C          62.9389   88.0939   12.4860 C.ar    1  UNL1        0.1598
      8 F          63.9331   88.4217   13.5603 F       1  UNL1       -0.2026
      9 O          64.2375   85.8362   14.0134 O.2     1  UNL1       -0.2864
     10 C          63.5069   85.5704   12.7308 C.2     1  UNL1        0.2016
     11 C          63.5572   84.2069   12.1075 C.ar    1  UNL1        0.0620
     12 C          64.1760   83.8644   10.7848 C.ar    1  UNL1        0.1038
     13 N          63.9987   82.3924   10.5574 N.ar    1  UNL1       -0.2268
     14 C          63.2703   81.8251   11.7397 C.ar    1  UNL1        0.1415
     15 N          62.8204   80.4324   12.0676 N.ar    1  UNL1       -0.3374
     16 C          62.0975   80.1610   13.3536 C.ar    1  UNL1        0.0744
     17 C          61.8246   81.2825   14.3116 C.ar    1  UNL1        0.0300
     18 C          62.2746   82.6753   13.9837 C.ar    1  UNL1        0.0622
     19 CL         62.0017   83.7967   14.9418 Cl      1  UNL1       -0.0821
     20 C          62.9975   82.9466   12.6977 C.ar    1  UNL1        0.0491
     21 H          62.9995   79.6963   11.4388 H       1  UNL1        0.1674
     22 N          62.3710   90.6173   12.2413 N.pl3   1  UNL1       -0.2128
     23 H          61.6189   91.2524   12.2251 H       1  UNL1        0.1738
     24 S          63.7301   91.0754   12.6807 S.O2    1  UNL1        0.0751
     25 O          63.2735   91.0597   14.1094 O.2     1  UNL1       -0.1499
     26 O          64.1868   91.0910   11.2520 O.2     1  UNL1       -0.1499
     27 C          65.0892   91.5334   13.1200 C.ar    1  UNL1        0.1442
     28 C          65.6652   91.0394   14.4140 C.ar    1  UNL1        0.0234
     29 C          67.0243   91.4974   14.8534 C.ar    1  UNL1        0.0221
     30 C          67.8074   92.4495   13.9988 C.ar    1  UNL1        0.0990
     31 N          67.2314   92.9435   12.7049 N.ar    1  UNL1       -0.2409
     32 C          65.8723   92.4855   12.2655 C.ar    1  UNL1        0.1190
@<TRIPOS>BOND
     1     9    10    2
     2    10     1    1
     3     1     2   ar
     4     2     3    1
     5     2     4   ar
     6     4     5   ar
     7     5     6   ar
     8     6    22    1
     9    22    24    1
    10    24    25    2
    11    24    26    2
    12    24    27    1
    13    27    28   ar
    14    28    29   ar
    15    29    30   ar
    16    30    31   ar
    17    31    32   ar
    18     6     7   ar
    19     7     8    1
    20    10    11    1
    21    11    12   ar
    22    12    13   ar
    23    13    14   ar
    24    14    15   ar
    25    15    16   ar
    26    16    17   ar
    27    17    18   ar
    28    18    19    1
    29    18    20   ar
    30     7     1   ar
    31    20    11   ar
    32    32    27   ar
    33    20    14    1
    34    22    23    1
    35    15    21    1
@<TRIPOS>MOLECULE
*****
 32 35 0 0 0
SMALL
GASTEIGER

@<TRIPOS>ATOM
      1 C          63.7249   86.9974   13.3817 C.ar    1  UNL1        0.0951
      2 C          62.9892   86.7741   12.0937 C.ar    1  UNL1        0.1454
      3 F          62.8313   85.3846   11.5513 F       1  UNL1       -0.2040
      4 C          62.4115   87.9404   11.3482 C.ar    1  UNL1        0.0312
      5 C          62.5694   89.3300   11.8906 C.ar    1  UNL1        0.0204
      6 C          63.3050   89.5533   13.1786 C.ar    1  UNL1        0.0924
      7 C          63.8828   88.3870   13.9241 C.ar    1  UNL1        0.1598
      8 F          64.6185   88.6101   15.2122 F       1  UNL1       -0.2026
      9 O          65.7824   85.7469   14.3578 O.2     1  UNL1       -0.2864
     10 C          64.3027   85.8310   14.1274 C.2     1  UNL1        0.2016
     11 C          63.4006   84.7490   14.6426 C.ar    1  UNL1        0.0620
     12 C          62.5080   84.8431   15.8444 C.ar    1  UNL1        0.1038
     13 N          61.7886   83.5350   15.9909 N.ar    1  UNL1       -0.2268
     14 C          62.2366   82.6325   14.8797 C.ar    1  UNL1        0.1415
     15 N          61.8660   81.2245   14.5190 N.ar    1  UNL1       -0.3374
     16 C          62.4918   80.5668   13.3250 C.ar    1  UNL1        0.0744
     17 C          63.4881   81.3170   12.4917 C.ar    1  UNL1        0.0300
     18 C          63.8587   82.7250   12.8523 C.ar    1  UNL1        0.0622
     19 CL         64.8550   83.4753   12.0190 Cl      1  UNL1       -0.0821
     20 C          63.2329   83.3828   14.0464 C.ar    1  UNL1        0.0491
     21 H          61.2121   80.7321   15.0660 H       1  UNL1        0.1674
     22 N          63.4629   90.9428   13.7210 N.pl3   1  UNL1       -0.2128
     23 H          62.6738   91.5213   13.8300 H       1  UNL1        0.1738
     24 S          64.8231   91.4510   14.0972 S.O2    1  UNL1        0.0751
     25 O          65.2515   91.3667   12.6622 O.2     1  UNL1       -0.1499
     26 O          64.3948   91.5353   15.5322 O.2     1  UNL1       -0.1499
     27 C          66.1833   91.9592   14.4735 C.ar    1  UNL1        0.1442
     28 C          66.4176   92.5349   15.8387 C.ar    1  UNL1        0.0234
     29 C          67.7778   93.0431   16.2151 C.ar    1  UNL1        0.0221
     30 C          68.9037   92.9756   15.2263 C.ar    1  UNL1        0.0990
     31 N          68.6694   92.3998   13.8611 N.ar    1  UNL1       -0.2409
     32 C          67.3093   91.8916   13.4847 C.ar    1  UNL1        0.1190
@<TRIPOS>BOND
     1     9    10    2
     2    10     1    1
     3     1     2   ar
     4     2     3    1
     5     2     4   ar
     6     4     5   ar
     7     5     6   ar
     8     6    22    1
     9    22    24    1
    10    24    25    2
    11    24    26    2
    12    24    27    1
    13    27    28   ar
    14    28    29   ar
    15    29    30   ar
    16    30    31   ar
    17    31    32   ar
    18     6     7   ar
    19     7     8    1
    20    10    11    1
    21    11    12   ar
    22    12    13   ar
    23    13    14   ar
    24    14    15   ar
    25    15    16   ar
    26    16    17   ar
    27    17    18   ar
    28    18    19    1
    29    18    20   ar
    30     7     1   ar
    31    20    11   ar
    32    32    27   ar
    33    20    14    1
    34    22    23    1
    35    15    21    1
@<TRIPOS>MOLECULE
*****
 32 35 0 0 0
SMALL
GASTEIGER

@<TRIPOS>ATOM
      1 C          64.0275   86.9775   15.1943 C.ar    1  UNL1        0.0951
      2 C          63.5331   86.7165   16.5863 C.ar    1  UNL1        0.1454
      3 F          63.6212   85.3363   17.1670 F       1  UNL1       -0.2040
      4 C          62.9506   87.8357   17.3973 C.ar    1  UNL1        0.0312
      5 C          62.8625   89.2159   16.8166 C.ar    1  UNL1        0.0204
      6 C          63.3569   89.4769   15.4247 C.ar    1  UNL1        0.0924
      7 C          63.9394   88.3577   14.6136 C.ar    1  UNL1        0.1598
      8 F          64.4339   88.6186   13.2216 F       1  UNL1       -0.2026
      9 O          66.0299   85.4297   14.6073 O.2     1  UNL1       -0.2864
     10 C          64.6101   85.8582   14.3831 C.2     1  UNL1        0.2016
     11 C          63.7728   85.1676   13.3478 C.ar    1  UNL1        0.0620
     12 C          63.0978   85.8226   12.1793 C.ar    1  UNL1        0.1038
     13 N          62.3713   84.7605   11.4086 N.ar    1  UNL1       -0.2268
     14 C          62.5972   83.4490   12.1007 C.ar    1  UNL1        0.1415
     15 N          62.1261   82.0583   11.7945 N.ar    1  UNL1       -0.3374
     16 C          62.5213   80.9191   12.6867 C.ar    1  UNL1        0.0744
     17 C          63.3874   81.1707   13.8853 C.ar    1  UNL1        0.0300
     18 C          63.8585   82.5615   14.1915 C.ar    1  UNL1        0.0622
     19 CL         64.7247   82.8131   15.3900 Cl      1  UNL1       -0.0821
     20 C          63.4634   83.7006   13.2992 C.ar    1  UNL1        0.0491
     21 H          61.5576   81.8931   11.0079 H       1  UNL1        0.1674
     22 N          63.2688   90.8571   14.8439 N.pl3   1  UNL1       -0.2128
     23 H          62.5353   91.4574   15.1103 H       1  UNL1        0.1738
     24 S          64.2982   91.3228   13.8573 S.O2    1  UNL1        0.0751
     25 O          65.3189   91.3908   14.9544 O.2     1  UNL1       -0.1499
     26 O          63.2775   91.2548   12.7603 O.2     1  UNL1       -0.1499
     27 C          65.3275   91.7884   12.8706 C.ar    1  UNL1        0.1442
     28 C          64.9195   92.1394   11.4705 C.ar    1  UNL1        0.0234
     29 C          65.9488   92.6051   10.4837 C.ar    1  UNL1        0.0221
     30 C          67.3861   92.7198   10.8971 C.ar    1  UNL1        0.0990
     31 N          67.7941   92.3688   12.2972 N.ar    1  UNL1       -0.2409
     32 C          66.7648   91.9032   13.2840 C.ar    1  UNL1        0.1190
@<TRIPOS>BOND
     1     9    10    2
     2    10     1    1
     3     1     2   ar
     4     2     3    1
     5     2     4   ar
     6     4     5   ar
     7     5     6   ar
     8     6    22    1
     9    22    24    1
    10    24    25    2
    11    24    26    2
    12    24    27    1
    13    27    28   ar
    14    28    29   ar
    15    29    30   ar
    16    30    31   ar
    17    31    32   ar
    18     6     7   ar
    19     7     8    1
    20    10    11    1
    21    11    12   ar
    22    12    13   ar
    23    13    14   ar
    24    14    15   ar
    25    15    16   ar
    26    16    17   ar
    27    17    18   ar
    28    18    19    1
    29    18    20   ar
    30     7     1   ar
    31    20    11   ar
    32    32    27   ar
    33    20    14    1
    34    22    23    1
    35    15    21    1
@<TRIPOS>MOLECULE
*****
 32 35 0 0 0
SMALL
GASTEIGER

@<TRIPOS>ATOM
      1 C          63.8406   88.8748   14.8780 C.ar    1  UNL1        0.0951
      2 C          63.2683   89.5693   16.0780 C.ar    1  UNL1        0.1454
      3 F          63.0285   91.0496   16.0444 F       1  UNL1       -0.2040
      4 C          62.9357   88.7835   17.3116 C.ar    1  UNL1        0.0312
      5 C          63.1755   87.3031   17.3453 C.ar    1  UNL1        0.0204
      6 C          63.7479   86.6086   16.1453 C.ar    1  UNL1        0.0924
      7 C          64.0804   87.3944   14.9117 C.ar    1  UNL1        0.1598
      8 F          64.6528   86.7000   13.7116 F       1  UNL1       -0.2026
      9 O          63.5398   89.3015   12.3330 O.2     1  UNL1       -0.2864
     10 C          64.1733   89.6606   13.6443 C.2     1  UNL1        0.2016
     11 C          65.1393   90.8055   13.7221 C.ar    1  UNL1        0.0620
     12 C          66.0802   91.0897   14.8552 C.ar    1  UNL1        0.1038
     13 N          66.8564   92.3270   14.5137 N.ar    1  UNL1       -0.2268
     14 C          66.3952   92.8075   13.1697 C.ar    1  UNL1        0.1415
     15 N          66.8045   93.9798   12.3281 N.ar    1  UNL1       -0.3374
     16 C          66.1525   94.2116   10.9973 C.ar    1  UNL1        0.0744
     17 C          65.0913   93.2712   10.5080 C.ar    1  UNL1        0.0300
     18 C          64.6820   92.0990   11.3496 C.ar    1  UNL1        0.0622
     19 CL         63.6207   91.1586   10.8603 Cl      1  UNL1       -0.0821
     20 C          65.3339   91.8671   12.6804 C.ar    1  UNL1        0.0491
     21 H          67.5010   94.5970   12.6493 H       1  UNL1        0.1674
     22 N          63.9876   85.1283   16.1789 N.pl3   1  UNL1       -0.2128
     23 H          64.3122   84.7008   17.0042 H       1  UNL1        0.1738
     24 S          63.7329   84.2993   14.9551 S.O2    1  UNL1        0.0751
     25 O          62.2617   84.5623   15.0831 O.2     1  UNL1       -0.1499
     26 O          65.2040   84.0362   14.8270 O.2     1  UNL1       -0.1499
     27 C          63.4782   83.4702   13.7312 C.ar    1  UNL1        0.1442
     28 C          64.2475   83.7368   12.4714 C.ar    1  UNL1        0.0234
     29 C          63.9929   82.9078   11.2475 C.ar    1  UNL1        0.0221
     30 C          62.9690   81.8122   11.2834 C.ar    1  UNL1        0.0990
     31 N          62.1997   81.5456   12.5433 N.ar    1  UNL1       -0.2409
     32 C          62.4543   82.3746   13.7672 C.ar    1  UNL1        0.1190
@<TRIPOS>BOND
     1     9    10    2
     2    10     1    1
     3     1     2   ar
     4     2     3    1
     5     2     4   ar
     6     4     5   ar
     7     5     6   ar
     8     6    22    1
     9    22    24    1
    10    24    25    2
    11    24    26    2
    12    24    27    1
    13    27    28   ar
    14    28    29   ar
    15    29    30   ar
    16    30    31   ar
    17    31    32   ar
    18     6     7   ar
    19     7     8    1
    20    10    11    1
    21    11    12   ar
    22    12    13   ar
    23    13    14   ar
    24    14    15   ar
    25    15    16   ar
    26    16    17   ar
    27    17    18   ar
    28    18    19    1
    29    18    20   ar
    30     7     1   ar
    31    20    11   ar
    32    32    27   ar
    33    20    14    1
    34    22    23    1
    35    15    21    1
@<TRIPOS>MOLECULE
*****
 32 35 0 0 0
SMALL
GASTEIGER

@<TRIPOS>ATOM
      1 C          62.3645   86.0156   10.5526 C.ar    1  UNL1        0.0951
      2 C          61.5999   85.9626    9.2631 C.ar    1  UNL1        0.1454
      3 F          61.6108   84.7115    8.4357 F       1  UNL1       -0.2040
      4 C          60.8245   87.1606    8.8013 C.ar    1  UNL1        0.0312
      5 C          60.8137   88.4117    9.6288 C.ar    1  UNL1        0.0204
      6 C          61.5783   88.4647   10.9182 C.ar    1  UNL1        0.0924
      7 C          62.3537   87.2666   11.3800 C.ar    1  UNL1        0.1598
      8 F          63.1183   87.3196   12.6695 F       1  UNL1       -0.2026
      9 O          64.2242   84.2467   10.1493 O.2     1  UNL1       -0.2864
     10 C          63.1400   84.8175   11.0145 C.2     1  UNL1        0.2016
     11 C          62.8312   84.1902   12.3416 C.ar    1  UNL1        0.0620
     12 C          62.5858   84.9228   13.6273 C.ar    1  UNL1        0.1038
     13 N          62.3164   83.9056   14.6963 N.ar    1  UNL1       -0.2268
     14 C          62.3954   82.5443   14.0712 C.ar    1  UNL1        0.1415
     15 N          62.2187   81.1673   14.6392 N.ar    1  UNL1       -0.3374
     16 C          62.3601   79.9663   13.7519 C.ar    1  UNL1        0.0744
     17 C          62.6782   80.1422   12.2966 C.ar    1  UNL1        0.0300
     18 C          62.8549   81.5191   11.7286 C.ar    1  UNL1        0.0622
     19 CL         63.1730   81.6950   10.2734 Cl      1  UNL1       -0.0821
     20 C          62.7135   82.7202   12.6159 C.ar    1  UNL1        0.0491
     21 H          62.0099   81.0519   15.5944 H       1  UNL1        0.1674
     22 N          61.5675   89.7157   11.7457 N.pl3   1  UNL1       -0.2128
     23 H          60.7118   90.1357   11.9919 H       1  UNL1        0.1738
     24 S          62.8604   90.3270   12.1980 S.O2    1  UNL1        0.0751
     25 O          63.2025   90.6563   10.7751 O.2     1  UNL1       -0.1499
     26 O          62.5184   89.9977   13.6208 O.2     1  UNL1       -0.1499
     27 C          64.1534   90.9382   12.6504 C.ar    1  UNL1        0.1442
     28 C          64.7644   90.5205   13.9551 C.ar    1  UNL1        0.0234
     29 C          66.0574   91.1317   14.4076 C.ar    1  UNL1        0.0221
     30 C          66.7393   92.1605   13.5554 C.ar    1  UNL1        0.0990
     31 N          66.1283   92.5782   12.2506 N.ar    1  UNL1       -0.2409
     32 C          64.8354   91.9670   11.7981 C.ar    1  UNL1        0.1190
@<TRIPOS>BOND
     1     9    10    2
     2    10     1    1
     3     1     2   ar
     4     2     3    1
     5     2     4   ar
     6     4     5   ar
     7     5     6   ar
     8     6    22    1
     9    22    24    1
    10    24    25    2
    11    24    26    2
    12    24    27    1
    13    27    28   ar
    14    28    29   ar
    15    29    30   ar
    16    30    31   ar
    17    31    32   ar
    18     6     7   ar
    19     7     8    1
    20    10    11    1
    21    11    12   ar
    22    12    13   ar
    23    13    14   ar
    24    14    15   ar
    25    15    16   ar
    26    16    17   ar
    27    17    18   ar
    28    18    19    1
    29    18    20   ar
    30     7     1   ar
    31    20    11   ar
    32    32    27   ar
    33    20    14    1
    34    22    23    1
    35    15    21    1
