@<TRIPOS>MOLECULE
*****
 31 34 0 0 0
SMALL
GASTEIGER

@<TRIPOS>ATOM
      1 O          63.8728   85.6208   15.2730 O.2     1  UNL1       -0.2522
      2 C          63.5366   86.2406   13.9491 C.2     1  UNL1        0.3077
      3 N          62.7996   85.4440   12.9136 N.am    1  UNL1       -0.2681
      4 N          63.9373   87.6570   13.6606 N.am    1  UNL1       -0.2639
      5 C          64.6743   88.4536   14.6961 C.3     1  UNL1        0.0955
      6 C          65.0751   89.8700   14.4076 C.3     1  UNL1        0.0309
      7 C          64.7388   90.4897   13.0837 C.3     1  UNL1        0.0827
      8 C          64.0018   89.6931   12.0482 C.3     1  UNL1        0.0309
      9 C          63.6011   88.2768   12.3367 C.3     1  UNL1        0.0955
     10 H          62.5789   85.8508   12.0447 H       1  UNL1        0.1564
     11 C          62.3988   84.0275   13.2021 C.ar    1  UNL1        0.0516
     12 C          61.9910   83.6313   14.5901 C.ar    1  UNL1        0.0147
     13 C          61.5903   82.2149   14.8785 C.ar    1  UNL1        0.0051
     14 C          61.5973   81.1947   13.7788 C.ar    1  UNL1        0.0715
     15 C          62.0051   81.5910   12.3908 C.ar    1  UNL1        0.0051
     16 C          62.4059   83.0073   12.1024 C.ar    1  UNL1        0.0147
     17 C          61.1965   79.7783   14.0673 C.3     1  UNL1        0.4186
     18 F          60.7958   78.3619   14.3557 F       1  UNL1       -0.1659
     19 F          59.8287   80.2466   14.4666 F       1  UNL1       -0.1659
     20 F          62.5644   79.3100   13.6680 F       1  UNL1       -0.1659
     21 C          65.1396   91.9062   12.7952 C.ar    1  UNL1        0.2362
     22 N          65.3631   92.4998   11.4359 N.ar    1  UNL1       -0.1895
     23 C          65.7489   93.9382   11.6160 C.ar    1  UNL1        0.2210
     24 N          65.7637   94.2334   13.0866 N.ar    1  UNL1       -0.0544
     25 O          65.3871   92.9776   13.8154 O.2     1  UNL1       -0.3370
     26 C          66.0644   94.9105   10.5182 C.ar    1  UNL1        0.1203
     27 C          67.4234   94.9098    9.8834 C.ar    1  UNL1        0.0224
     28 C          67.7389   95.8821    8.7857 C.ar    1  UNL1        0.0032
     29 C          66.6954   96.8551    8.3227 C.ar    1  UNL1        0.0207
     30 C          65.3363   96.8557    8.9576 C.ar    1  UNL1        0.0989
     31 N          65.0208   95.8834   10.0553 N.ar    1  UNL1       -0.2406
@<TRIPOS>BOND
     1     1     2    2
     2     2     3   am
     3     3    11    1
     4    11    12   ar
     5    12    13   ar
     6    13    14   ar
     7    14    17    1
     8    17    18    1
     9    17    19    1
    10    17    20    1
    11    14    15   ar
    12    15    16   ar
    13     2     4   am
    14     4     5    1
    15     5     6    1
    16     6     7    1
    17     7    21    1
    18    21    22   ar
    19    22    23   ar
    20    23    26    1
    21    26    27   ar
    22    27    28   ar
    23    28    29   ar
    24    29    30   ar
    25    30    31   ar
    26    23    24   ar
    27    24    25   ar
    28     7     8    1
    29     8     9    1
    30    16    11   ar
    31     9     4    1
    32    25    21   ar
    33    31    26   ar
    34     3    10    1
@<TRIPOS>MOLECULE
*****
 31 34 0 0 0
SMALL
GASTEIGER

@<TRIPOS>ATOM
      1 O          61.8271   87.3693   11.5025 O.2     1  UNL1       -0.2522
      2 C          61.4537   86.8275   10.1545 C.2     1  UNL1        0.3077
      3 N          61.6396   85.3696    9.8544 N.am    1  UNL1       -0.2681
      4 N          60.8944   87.7436    9.1067 N.am    1  UNL1       -0.2639
      5 C          60.7086   89.2014    9.4068 C.3     1  UNL1        0.0955
      6 C          60.1493   90.1175    8.3589 C.3     1  UNL1        0.0309
      7 C          59.7760   89.5757    7.0109 C.3     1  UNL1        0.0827
      8 C          59.9618   88.1179    6.7108 C.3     1  UNL1        0.0309
      9 C          60.5211   87.2018    7.7587 C.3     1  UNL1        0.0955
     10 H          61.3945   85.0141    8.9697 H       1  UNL1        0.1564
     11 C          62.1989   84.4535   10.9023 C.ar    1  UNL1        0.0516
     12 C          62.7572   83.1177   10.5101 C.ar    1  UNL1        0.0147
     13 C          63.3164   82.2017   11.5579 C.ar    1  UNL1        0.0051
     14 C          63.3173   82.6214   12.9980 C.ar    1  UNL1        0.0715
     15 C          62.7590   83.9572   13.3902 C.ar    1  UNL1        0.0051
     16 C          62.1998   84.8732   12.3424 C.ar    1  UNL1        0.0147
     17 C          63.8766   81.7053   14.0459 C.3     1  UNL1        0.4186
     18 F          64.4358   80.7891   15.0937 F       1  UNL1       -0.1659
     19 F          64.2398   82.8914   14.8891 F       1  UNL1       -0.1659
     20 F          63.5133   80.5191   13.2027 F       1  UNL1       -0.1659
     21 C          59.2167   90.4919    5.9630 C.ar    1  UNL1        0.2362
     22 N          60.0100   91.2498    4.9402 N.ar    1  UNL1       -0.1895
     23 C          59.0496   92.0373    4.0991 C.ar    1  UNL1        0.2210
     24 N          57.6627   91.7659    4.6020 N.ar    1  UNL1       -0.0544
     25 O          57.7660   90.8108    5.7540 O.2     1  UNL1       -0.3370
     26 C          59.4124   92.9379    2.9557 C.ar    1  UNL1        0.1203
     27 C          59.1518   92.5007    1.5447 C.ar    1  UNL1        0.0224
     28 C          59.5145   93.4013    0.4013 C.ar    1  UNL1        0.0032
     29 C          60.1379   94.7391    0.6690 C.ar    1  UNL1        0.0207
     30 C          60.3985   95.1763    2.0801 C.ar    1  UNL1        0.0989
     31 N          60.0357   94.2757    3.2234 N.ar    1  UNL1       -0.2406
@<TRIPOS>BOND
     1     1     2    2
     2     2     3   am
     3     3    11    1
     4    11    12   ar
     5    12    13   ar
     6    13    14   ar
     7    14    17    1
     8    17    18    1
     9    17    19    1
    10    17    20    1
    11    14    15   ar
    12    15    16   ar
    13     2     4   am
    14     4     5    1
    15     5     6    1
    16     6     7    1
    17     7    21    1
    18    21    22   ar
    19    22    23   ar
    20    23    26    1
    21    26    27   ar
    22    27    28   ar
    23    28    29   ar
    24    29    30   ar
    25    30    31   ar
    26    23    24   ar
    27    24    25   ar
    28     7     8    1
    29     8     9    1
    30    16    11   ar
    31     9     4    1
    32    25    21   ar
    33    31    26   ar
    34     3    10    1
