@<TRIPOS>MOLECULE
*****
 30 33 0 0 0
SMALL
GASTEIGER

@<TRIPOS>ATOM
      1 N          63.4693   89.5421   12.8654 N.am    1  UNL1       -0.2433
      2 C          62.6391   88.7561   11.8944 C.2     1  UNL1        0.3150
      3 O          61.9650   87.4911   12.3362 O.2     1  UNL1       -0.2516
      4 N          62.4829   89.2352   10.4816 N.am    1  UNL1       -0.2342
      5 C          63.1570   90.5003   10.0397 C.3     1  UNL1        0.1292
      6 C          63.9873   91.2863   11.0108 C.ar    1  UNL1        0.0308
      7 C          64.6613   92.5513   10.5690 C.ar    1  UNL1        0.0989
      8 N          65.4916   93.3373   11.5400 N.ar    1  UNL1       -0.2295
      9 C          65.6477   92.8583   12.9528 C.ar    1  UNL1        0.1317
     10 C          64.9737   91.5932   13.3947 C.ar    1  UNL1        0.0322
     11 C          64.1434   90.8072   12.4237 C.ar    1  UNL1        0.0536
     12 C          65.3070   91.3708   14.8402 C.3     1  UNL1        0.1157
     13 C          66.1870   92.4984   15.2917 C.2     1  UNL1        0.2317
     14 O          66.7566   92.6757   16.6680 O.2     1  UNL1       -0.2744
     15 N          66.3977   93.4178   14.1253 N.am    1  UNL1       -0.2693
     16 H          66.9339   94.2434   14.1286 H       1  UNL1        0.1563
     17 C          61.6527   88.4492    9.5106 C.ar    1  UNL1        0.1167
     18 C          62.0415   87.0443    9.1568 C.ar    1  UNL1        0.1898
     19 F          63.2605   86.4254    9.7741 F       1  UNL1       -0.1996
     20 C          61.2111   86.2583    8.1858 C.ar    1  UNL1        0.1704
     21 C          59.9921   86.8772    7.5685 C.ar    1  UNL1        0.0785
     22 C          59.6034   88.2821    7.9223 C.ar    1  UNL1        0.1704
     23 C          60.4337   89.0680    8.8933 C.ar    1  UNL1        0.1898
     24 F          60.0449   90.4729    9.2471 F       1  UNL1       -0.1996
     25 O          61.5999   84.8534    7.8320 O.3     1  UNL1       -0.4690
     26 C          61.9075   84.4963    6.4080 C.3     1  UNL1        0.2526
     27 O          58.3844   88.9010    7.3051 O.3     1  UNL1       -0.4690
     28 C          58.5319   89.9530    6.2461 C.3     1  UNL1        0.2526
     29 C          64.4020   87.8120   14.5645 C.3     1  UNL1        0.0237
     30 C          63.6255   89.0630   14.2783 C.3     1  UNL1        0.0998
@<TRIPOS>BOND
     1    29    30    1
     2    30     1    1
     3     1     2   am
     4     2     3    2
     5     2     4   am
     6     4    17    1
     7    17    18   ar
     8    18    19    1
     9    18    20   ar
    10    20    25    1
    11    25    26    1
    12    20    21   ar
    13    21    22   ar
    14    22    27    1
    15    27    28    1
    16    22    23   ar
    17    23    24    1
    18     4     5    1
    19     5     6    1
    20     6     7   ar
    21     7     8   ar
    22     8     9   ar
    23     9    10   ar
    24    10    11   ar
    25    10    12    1
    26    12    13    1
    27    13    14    2
    28    13    15   am
    29    11     1    1
    30    23    17   ar
    31    11     6   ar
    32    15     9    1
    33    15    16    1
@<TRIPOS>MOLECULE
*****
 30 33 0 0 0
SMALL
GASTEIGER

@<TRIPOS>ATOM
      1 N          63.4916   89.5214   12.8532 N.am    1  UNL1       -0.2433
      2 C          62.6601   88.7351   11.8835 C.2     1  UNL1        0.3150
      3 O          62.0006   87.4612   12.3219 O.2     1  UNL1       -0.2516
      4 N          62.4879   89.2228   10.4755 N.am    1  UNL1       -0.2342
      5 C          63.1473   90.4967   10.0371 C.3     1  UNL1        0.1292
      6 C          63.9790   91.2831   11.0068 C.ar    1  UNL1        0.0308
      7 C          64.6384   92.5570   10.5684 C.ar    1  UNL1        0.0989
      8 N          65.4699   93.3433   11.5380 N.ar    1  UNL1       -0.2295
      9 C          65.6421   92.8557   12.9461 C.ar    1  UNL1        0.1317
     10 C          64.9826   91.5817   13.3845 C.ar    1  UNL1        0.0322
     11 C          64.1511   90.7954   12.4149 C.ar    1  UNL1        0.0536
     12 C          65.3300   91.3520   14.8255 C.3     1  UNL1        0.1157
     13 C          66.2041   92.4840   15.2777 C.2     1  UNL1        0.2317
     14 O          66.7836   92.6565   16.6504 O.2     1  UNL1       -0.2744
     15 N          66.3970   93.4133   14.1162 N.am    1  UNL1       -0.2693
     16 H          66.9261   94.2435   14.1209 H       1  UNL1        0.1563
     17 C          61.6563   88.4365    9.5059 C.ar    1  UNL1        0.1167
     18 C          60.4362   89.0549    8.8905 C.ar    1  UNL1        0.1898
     19 F          60.0476   90.4598    9.2448 F       1  UNL1       -0.1996
     20 C          59.6046   88.2685    7.9209 C.ar    1  UNL1        0.1704
     21 C          59.9932   86.8637    7.5666 C.ar    1  UNL1        0.0785
     22 C          61.2134   86.2453    8.1821 C.ar    1  UNL1        0.1704
     23 C          62.0449   87.0317    9.1516 C.ar    1  UNL1        0.1898
     24 F          63.2651   86.4132    9.7670 F       1  UNL1       -0.1996
     25 O          58.3845   88.8870    7.3055 O.3     1  UNL1       -0.4690
     26 C          58.5299   89.9398    6.2471 C.3     1  UNL1        0.2526
     27 O          61.6020   84.8405    7.8278 O.3     1  UNL1       -0.4690
     28 C          61.8433   84.4677    6.3951 C.3     1  UNL1        0.2526
     29 C          64.4446   87.7818   14.5312 C.3     1  UNL1        0.0237
     30 C          63.6638   89.0337   14.2612 C.3     1  UNL1        0.0998
@<TRIPOS>BOND
     1    29    30    1
     2    30     1    1
     3     1     2   am
     4     2     3    2
     5     2     4   am
     6     4    17    1
     7    17    18   ar
     8    18    19    1
     9    18    20   ar
    10    20    25    1
    11    25    26    1
    12    20    21   ar
    13    21    22   ar
    14    22    27    1
    15    27    28    1
    16    22    23   ar
    17    23    24    1
    18     4     5    1
    19     5     6    1
    20     6     7   ar
    21     7     8   ar
    22     8     9   ar
    23     9    10   ar
    24    10    11   ar
    25    10    12    1
    26    12    13    1
    27    13    14    2
    28    13    15   am
    29    11     1    1
    30    23    17   ar
    31    11     6   ar
    32    15     9    1
    33    15    16    1
@<TRIPOS>MOLECULE
*****
 30 33 0 0 0
SMALL
GASTEIGER

@<TRIPOS>ATOM
      1 N          63.9996   90.4509   12.2867 N.am    1  UNL1       -0.2433
      2 C          63.5829   89.1951   12.9934 C.2     1  UNL1        0.3150
      3 O          62.5959   88.2657   12.3516 O.2     1  UNL1       -0.2516
      4 N          64.1533   88.8687   14.3418 N.am    1  UNL1       -0.2342
      5 C          65.1403   89.7982   14.9836 C.3     1  UNL1        0.1292
      6 C          65.5570   91.0540   14.2769 C.ar    1  UNL1        0.0308
      7 C          66.5440   91.9834   14.9187 C.ar    1  UNL1        0.0989
      8 N          66.9607   93.2392   14.2121 N.ar    1  UNL1       -0.2295
      9 C          66.3904   93.5656   12.8637 C.ar    1  UNL1        0.1317
     10 C          65.4034   92.6362   12.2219 C.ar    1  UNL1        0.0322
     11 C          64.9866   91.3804   12.9285 C.ar    1  UNL1        0.0536
     12 C          65.0139   93.2177   10.8952 C.3     1  UNL1        0.1157
     13 C          65.7603   94.5066   10.7171 C.2     1  UNL1        0.2317
     14 O          65.6716   95.4201    9.5306 O.2     1  UNL1       -0.2744
     15 N          66.6110   94.7216   11.9337 N.am    1  UNL1       -0.2693
     16 H          67.2092   95.4870   12.0936 H       1  UNL1        0.1563
     17 C          63.7366   87.6129   15.0483 C.ar    1  UNL1        0.1167
     18 C          63.9606   86.2785   14.4010 C.ar    1  UNL1        0.1898
     19 F          64.6013   86.1999   13.0470 F       1  UNL1       -0.1996
     20 C          63.5438   85.0227   15.1077 C.ar    1  UNL1        0.1704
     21 C          62.9031   85.1013   16.4616 C.ar    1  UNL1        0.0785
     22 C          62.6791   86.4358   17.1090 C.ar    1  UNL1        0.1704
     23 C          63.0958   87.6915   16.4023 C.ar    1  UNL1        0.1898
     24 F          62.8718   89.0260   17.0497 F       1  UNL1       -0.1996
     25 O          63.7679   83.6882   14.4603 O.3     1  UNL1       -0.4690
     26 C          62.7004   82.6362   14.5216 C.3     1  UNL1        0.2526
     27 O          62.0383   86.5144   18.4629 O.3     1  UNL1       -0.4690
     28 C          62.7930   87.1056   19.6166 C.3     1  UNL1        0.2526
     29 C          61.9426   90.8348   10.7467 C.3     1  UNL1        0.0237
     30 C          63.4292   90.7773   10.9384 C.3     1  UNL1        0.0998
@<TRIPOS>BOND
     1    29    30    1
     2    30     1    1
     3     1     2   am
     4     2     3    2
     5     2     4   am
     6     4    17    1
     7    17    18   ar
     8    18    19    1
     9    18    20   ar
    10    20    25    1
    11    25    26    1
    12    20    21   ar
    13    21    22   ar
    14    22    27    1
    15    27    28    1
    16    22    23   ar
    17    23    24    1
    18     4     5    1
    19     5     6    1
    20     6     7   ar
    21     7     8   ar
    22     8     9   ar
    23     9    10   ar
    24    10    11   ar
    25    10    12    1
    26    12    13    1
    27    13    14    2
    28    13    15   am
    29    11     1    1
    30    23    17   ar
    31    11     6   ar
    32    15     9    1
    33    15    16    1
@<TRIPOS>MOLECULE
*****
 30 33 0 0 0
SMALL
GASTEIGER

@<TRIPOS>ATOM
      1 N          64.0950   90.5966   12.3520 N.am    1  UNL1       -0.2433
      2 C          63.6851   89.3831   13.1326 C.2     1  UNL1        0.3150
      3 O          62.7053   88.4101   12.5466 O.2     1  UNL1       -0.2516
      4 N          64.2550   89.1425   14.4991 N.am    1  UNL1       -0.2342
      5 C          65.2348   90.1154   15.0851 C.3     1  UNL1        0.1292
      6 C          65.6448   91.3290   14.3045 C.ar    1  UNL1        0.0308
      7 C          66.6245   92.3019   14.8904 C.ar    1  UNL1        0.0989
      8 N          67.0344   93.5155   14.1099 N.ar    1  UNL1       -0.2295
      9 C          66.4646   93.7561   12.7434 C.ar    1  UNL1        0.1317
     10 C          65.4848   92.7832   12.1574 C.ar    1  UNL1        0.0322
     11 C          65.0748   91.5696   12.9380 C.ar    1  UNL1        0.0536
     12 C          65.0941   93.2809   10.7974 C.3     1  UNL1        0.1157
     13 C          65.8325   94.5615   10.5429 C.2     1  UNL1        0.2317
     14 O          65.7402   95.4011    9.3033 O.2     1  UNL1       -0.2744
     15 N          66.6795   94.8552   11.7456 N.am    1  UNL1       -0.2693
     16 H          67.2724   95.6328   11.8599 H       1  UNL1        0.1563
     17 C          63.8451   87.9289   15.2796 C.ar    1  UNL1        0.1167
     18 C          63.1332   88.0856   16.5906 C.ar    1  UNL1        0.1898
     19 F          62.8312   89.4557   17.1211 F       1  UNL1       -0.1996
     20 C          62.7233   86.8719   17.3711 C.ar    1  UNL1        0.1704
     21 C          63.0252   85.5017   16.8406 C.ar    1  UNL1        0.0785
     22 C          63.7371   85.3452   15.5296 C.ar    1  UNL1        0.1704
     23 C          64.1470   86.5587   14.7492 C.ar    1  UNL1        0.1898
     24 F          64.8589   86.4021   13.4382 F       1  UNL1       -0.1996
     25 O          62.0114   87.0285   18.6821 O.3     1  UNL1       -0.4690
     26 C          62.7985   87.1496   19.9532 C.3     1  UNL1        0.2526
     27 O          64.0391   83.9750   14.9991 O.3     1  UNL1       -0.4690
     28 C          62.9204   83.0776   14.5595 C.3     1  UNL1        0.2526
     29 C          62.0387   90.8492   10.7842 C.3     1  UNL1        0.0237
     30 C          63.5251   90.8372   10.9855 C.3     1  UNL1        0.0998
@<TRIPOS>BOND
     1    29    30    1
     2    30     1    1
     3     1     2   am
     4     2     3    2
     5     2     4   am
     6     4    17    1
     7    17    18   ar
     8    18    19    1
     9    18    20   ar
    10    20    25    1
    11    25    26    1
    12    20    21   ar
    13    21    22   ar
    14    22    27    1
    15    27    28    1
    16    22    23   ar
    17    23    24    1
    18     4     5    1
    19     5     6    1
    20     6     7   ar
    21     7     8   ar
    22     8     9   ar
    23     9    10   ar
    24    10    11   ar
    25    10    12    1
    26    12    13    1
    27    13    14    2
    28    13    15   am
    29    11     1    1
    30    23    17   ar
    31    11     6   ar
    32    15     9    1
    33    15    16    1
@<TRIPOS>MOLECULE
*****
 30 33 0 0 0
SMALL
GASTEIGER

@<TRIPOS>ATOM
      1 N          65.0647   91.6212   12.3187 N.am    1  UNL1       -0.2433
      2 C          64.1625   90.8147   11.4324 C.2     1  UNL1        0.3150
      3 O          64.3274   90.8727    9.9426 O.2     1  UNL1       -0.2516
      4 N          63.0955   89.9501   12.0357 N.am    1  UNL1       -0.2342
      5 C          62.9306   89.8921   13.5255 C.3     1  UNL1        0.1292
      6 C          63.8328   90.6986   14.4120 C.ar    1  UNL1        0.0308
      7 C          63.6680   90.6406   15.9017 C.ar    1  UNL1        0.0989
      8 N          64.5701   91.4471   16.7881 N.ar    1  UNL1       -0.2295
      9 C          65.6371   92.3116   16.1847 C.ar    1  UNL1        0.1317
     10 C          65.8019   92.3697   14.6949 C.ar    1  UNL1        0.0322
     11 C          64.8998   91.5632   13.8085 C.ar    1  UNL1        0.0536
     12 C          66.9341   93.3052   14.3899 C.3     1  UNL1        0.1157
     13 C          67.4689   93.8253   15.6912 C.2     1  UNL1        0.2317
     14 O          68.6058   94.7901   15.8547 O.2     1  UNL1       -0.2744
     15 N          66.6673   93.2113   16.8005 N.am    1  UNL1       -0.2693
     16 H          66.7950   93.3707   17.7636 H       1  UNL1        0.1563
     17 C          62.1934   89.1436   11.1493 C.ar    1  UNL1        0.1167
     18 C          61.2572   89.8355   10.2035 C.ar    1  UNL1        0.1898
     19 F          61.2230   91.3340   10.1440 F       1  UNL1       -0.1996
     20 C          60.3551   89.0289    9.3171 C.ar    1  UNL1        0.1704
     21 C          60.3892   87.5305    9.3765 C.ar    1  UNL1        0.0785
     22 C          61.3255   86.8386   10.3224 C.ar    1  UNL1        0.1704
     23 C          62.2276   87.6452   11.2088 C.ar    1  UNL1        0.1898
     24 F          63.1638   86.9533   12.1547 F       1  UNL1       -0.1996
     25 O          59.4188   89.7208    8.3712 O.3     1  UNL1       -0.4690
     26 C          59.3669   89.3069    6.9304 C.3     1  UNL1        0.2526
     27 O          61.3597   85.3402   10.3819 O.3     1  UNL1       -0.4690
     28 C          62.6635   84.6133   10.2347 C.3     1  UNL1        0.2526
     29 C          65.7580   93.7552   11.0091 C.3     1  UNL1        0.0237
     30 C          66.1316   92.4857   11.7153 C.3     1  UNL1        0.0998
@<TRIPOS>BOND
     1    29    30    1
     2    30     1    1
     3     1     2   am
     4     2     3    2
     5     2     4   am
     6     4    17    1
     7    17    18   ar
     8    18    19    1
     9    18    20   ar
    10    20    25    1
    11    25    26    1
    12    20    21   ar
    13    21    22   ar
    14    22    27    1
    15    27    28    1
    16    22    23   ar
    17    23    24    1
    18     4     5    1
    19     5     6    1
    20     6     7   ar
    21     7     8   ar
    22     8     9   ar
    23     9    10   ar
    24    10    11   ar
    25    10    12    1
    26    12    13    1
    27    13    14    2
    28    13    15   am
    29    11     1    1
    30    23    17   ar
    31    11     6   ar
    32    15     9    1
    33    15    16    1
@<TRIPOS>MOLECULE
*****
 30 33 0 0 0
SMALL
GASTEIGER

@<TRIPOS>ATOM
      1 N          65.0742   91.6222   12.3217 N.am    1  UNL1       -0.2433
      2 C          64.1711   90.8144   11.4375 C.2     1  UNL1        0.3150
      3 O          64.3328   90.8722    9.9473 O.2     1  UNL1       -0.2516
      4 N          63.1064   89.9488   12.0433 N.am    1  UNL1       -0.2342
      5 C          62.9447   89.8909   13.5335 C.3     1  UNL1        0.1292
      6 C          63.8478   90.6988   14.4178 C.ar    1  UNL1        0.0308
      7 C          63.6861   90.6410   15.9079 C.ar    1  UNL1        0.0989
      8 N          64.5891   91.4488   16.7922 N.ar    1  UNL1       -0.2295
      9 C          65.6538   92.3144   16.1863 C.ar    1  UNL1        0.1317
     10 C          65.8155   92.3722   14.6962 C.ar    1  UNL1        0.0322
     11 C          64.9125   91.5644   13.8119 C.ar    1  UNL1        0.0536
     12 C          66.9460   93.3090   14.3886 C.3     1  UNL1        0.1157
     13 C          67.4829   93.8301   15.6886 C.2     1  UNL1        0.2317
     14 O          68.6190   94.7962   15.8494 O.2     1  UNL1       -0.2744
     15 N          66.6843   93.2154   16.7997 N.am    1  UNL1       -0.2693
     16 H          66.8138   93.3753   17.7624 H       1  UNL1        0.1563
     17 C          62.2034   89.1410   11.1590 C.ar    1  UNL1        0.1167
     18 C          62.2415   87.6425   11.2167 C.ar    1  UNL1        0.1898
     19 F          63.1826   86.9519   12.1587 F       1  UNL1       -0.1996
     20 C          61.3384   86.8348   10.3323 C.ar    1  UNL1        0.1704
     21 C          60.3973   87.5254    9.3903 C.ar    1  UNL1        0.0785
     22 C          60.3592   89.0239    9.3327 C.ar    1  UNL1        0.1704
     23 C          61.2623   89.8316   10.2170 C.ar    1  UNL1        0.1898
     24 F          61.2242   91.3300   10.1594 F       1  UNL1       -0.1996
     25 O          61.3765   85.3364   10.3900 O.3     1  UNL1       -0.4690
     26 C          62.6861   84.6144   10.2728 C.3     1  UNL1        0.2526
     27 O          59.4181   89.7145    8.3907 O.3     1  UNL1       -0.4690
     28 C          59.3838   89.3224    6.9433 C.3     1  UNL1        0.2526
     29 C          65.7631   93.7612   11.0179 C.3     1  UNL1        0.0237
     30 C          66.1389   92.4878   11.7159 C.3     1  UNL1        0.0998
@<TRIPOS>BOND
     1    29    30    1
     2    30     1    1
     3     1     2   am
     4     2     3    2
     5     2     4   am
     6     4    17    1
     7    17    18   ar
     8    18    19    1
     9    18    20   ar
    10    20    25    1
    11    25    26    1
    12    20    21   ar
    13    21    22   ar
    14    22    27    1
    15    27    28    1
    16    22    23   ar
    17    23    24    1
    18     4     5    1
    19     5     6    1
    20     6     7   ar
    21     7     8   ar
    22     8     9   ar
    23     9    10   ar
    24    10    11   ar
    25    10    12    1
    26    12    13    1
    27    13    14    2
    28    13    15   am
    29    11     1    1
    30    23    17   ar
    31    11     6   ar
    32    15     9    1
    33    15    16    1
@<TRIPOS>MOLECULE
*****
 30 33 0 0 0
SMALL
GASTEIGER

@<TRIPOS>ATOM
      1 N          61.4603   93.8345   -2.5961 N.am    1  UNL1       -0.2433
      2 C          60.2725   93.8626   -3.5118 C.2     1  UNL1        0.3150
      3 O          60.4471   94.2309   -4.9554 O.2     1  UNL1       -0.2516
      4 N          58.9103   93.5224   -2.9840 N.am    1  UNL1       -0.2342
      5 C          58.7358   93.1540   -1.5404 C.3     1  UNL1        0.1292
      6 C          59.9236   93.1259   -0.6246 C.ar    1  UNL1        0.0308
      7 C          59.7491   92.7576    0.8188 C.ar    1  UNL1        0.0989
      8 N          60.9367   92.7295    1.7346 N.ar    1  UNL1       -0.2295
      9 C          62.2989   93.0697    1.2068 C.ar    1  UNL1        0.1317
     10 C          62.4735   93.4380   -0.2368 C.ar    1  UNL1        0.0322
     11 C          61.2858   93.4662   -1.1525 C.ar    1  UNL1        0.0536
     12 C          63.9275   93.7233   -0.4699 C.3     1  UNL1        0.1157
     13 C          64.6517   93.5312    0.8296 C.2     1  UNL1        0.2317
     14 O          66.1239   93.7114    1.0536 O.2     1  UNL1       -0.2744
     15 N          63.6452   93.1273    1.8659 N.am    1  UNL1       -0.2693
     16 H          63.8348   92.9339    2.8124 H       1  UNL1        0.1563
     17 C          57.7227   93.5505   -3.8997 C.ar    1  UNL1        0.1167
     18 C          57.0488   94.8532   -4.2142 C.ar    1  UNL1        0.1898
     19 F          57.5625   96.1277   -3.6130 F       1  UNL1       -0.1996
     20 C          55.8610   94.8812   -5.1301 C.ar    1  UNL1        0.1704
     21 C          55.3473   93.6066   -5.7313 C.ar    1  UNL1        0.0785
     22 C          56.0212   92.3039   -5.4167 C.ar    1  UNL1        0.1704
     23 C          57.2089   92.2759   -4.5010 C.ar    1  UNL1        0.1898
     24 F          57.8828   90.9732   -4.1865 F       1  UNL1       -0.1996
     25 O          55.1871   96.1838   -5.4446 O.3     1  UNL1       -0.4690
     26 C          53.6922   96.2894   -5.3813 C.3     1  UNL1        0.2526
     27 O          55.5074   91.0294   -6.0180 O.3     1  UNL1       -0.4690
     28 C          55.2532   90.9455   -7.4939 C.3     1  UNL1        0.2526
     29 C          63.5813   93.1729   -3.9428 C.3     1  UNL1        0.0237
     30 C          62.8225   94.1747   -3.1240 C.3     1  UNL1        0.0998
@<TRIPOS>BOND
     1    29    30    1
     2    30     1    1
     3     1     2   am
     4     2     3    2
     5     2     4   am
     6     4    17    1
     7    17    18   ar
     8    18    19    1
     9    18    20   ar
    10    20    25    1
    11    25    26    1
    12    20    21   ar
    13    21    22   ar
    14    22    27    1
    15    27    28    1
    16    22    23   ar
    17    23    24    1
    18     4     5    1
    19     5     6    1
    20     6     7   ar
    21     7     8   ar
    22     8     9   ar
    23     9    10   ar
    24    10    11   ar
    25    10    12    1
    26    12    13    1
    27    13    14    2
    28    13    15   am
    29    11     1    1
    30    23    17   ar
    31    11     6   ar
    32    15     9    1
    33    15    16    1
@<TRIPOS>MOLECULE
*****
 30 33 0 0 0
SMALL
GASTEIGER

@<TRIPOS>ATOM
      1 N          61.4453   93.8246   -2.5532 N.am    1  UNL1       -0.2433
      2 C          60.2758   93.8685   -3.4913 C.2     1  UNL1        0.3150
      3 O          60.4882   94.1949   -4.9399 O.2     1  UNL1       -0.2516
      4 N          58.8938   93.5858   -2.9810 N.am    1  UNL1       -0.2342
      5 C          58.6814   93.2593   -1.5324 C.3     1  UNL1        0.1292
      6 C          59.8510   93.2155   -0.5942 C.ar    1  UNL1        0.0308
      7 C          59.6387   92.8890    0.8543 C.ar    1  UNL1        0.0989
      8 N          60.8082   92.8452    1.7926 N.ar    1  UNL1       -0.2295
      9 C          62.1901   93.1278    1.2822 C.ar    1  UNL1        0.1317
     10 C          62.4025   93.4543   -0.1663 C.ar    1  UNL1        0.0322
     11 C          61.2330   93.4982   -1.1046 C.ar    1  UNL1        0.0536
     12 C          63.8691   93.6863   -0.3790 C.3     1  UNL1        0.1157
     13 C          64.5631   93.5033    0.9381 C.2     1  UNL1        0.2317
     14 O          66.0362   93.6411    1.1852 O.2     1  UNL1       -0.2744
     15 N          63.5254   93.1581    1.9648 N.am    1  UNL1       -0.2693
     16 H          63.6917   92.9823    2.9191 H       1  UNL1        0.1563
     17 C          57.7243   93.6297   -3.9192 C.ar    1  UNL1        0.1167
     18 C          57.1851   92.3586   -4.5055 C.ar    1  UNL1        0.1898
     19 F          57.8153   91.0438   -4.1535 F       1  UNL1       -0.1996
     20 C          56.0155   92.4026   -5.4438 C.ar    1  UNL1        0.1704
     21 C          55.3853   93.7175   -5.7958 C.ar    1  UNL1        0.0785
     22 C          55.9246   94.9885   -5.2094 C.ar    1  UNL1        0.1704
     23 C          57.0941   94.9445   -4.2712 C.ar    1  UNL1        0.1898
     24 F          57.6334   96.2156   -3.6850 F       1  UNL1       -0.1996
     25 O          55.4762   91.1316   -6.0300 O.3     1  UNL1       -0.4690
     26 C          55.3215   90.9975   -7.5160 C.3     1  UNL1        0.2526
     27 O          55.2944   96.3033   -5.5614 O.3     1  UNL1       -0.4690
     28 C          53.8300   96.3720   -5.8788 C.3     1  UNL1        0.2526
     29 C          63.5442   93.0839   -3.8933 C.3     1  UNL1        0.0237
     30 C          62.8272   94.1073   -3.0635 C.3     1  UNL1        0.0998
@<TRIPOS>BOND
     1    29    30    1
     2    30     1    1
     3     1     2   am
     4     2     3    2
     5     2     4   am
     6     4    17    1
     7    17    18   ar
     8    18    19    1
     9    18    20   ar
    10    20    25    1
    11    25    26    1
    12    20    21   ar
    13    21    22   ar
    14    22    27    1
    15    27    28    1
    16    22    23   ar
    17    23    24    1
    18     4     5    1
    19     5     6    1
    20     6     7   ar
    21     7     8   ar
    22     8     9   ar
    23     9    10   ar
    24    10    11   ar
    25    10    12    1
    26    12    13    1
    27    13    14    2
    28    13    15   am
    29    11     1    1
    30    23    17   ar
    31    11     6   ar
    32    15     9    1
    33    15    16    1
@<TRIPOS>MOLECULE
*****
 30 33 0 0 0
SMALL
GASTEIGER

@<TRIPOS>ATOM
      1 N          60.0651   94.1490   -0.8447 N.am    1  UNL1       -0.2433
      2 C          58.8513   94.0236   -1.7170 C.2     1  UNL1        0.3150
      3 O          57.4822   94.0447   -1.1045 O.2     1  UNL1       -0.2516
      4 N          59.0065   93.8771   -3.2017 N.am    1  UNL1       -0.2342
      5 C          60.3756   93.8559   -3.8142 C.3     1  UNL1        0.1292
      6 C          61.5896   93.9813   -2.9419 C.ar    1  UNL1        0.0308
      7 C          62.9586   93.9601   -3.5543 C.ar    1  UNL1        0.0989
      8 N          64.1724   94.0855   -2.6820 N.ar    1  UNL1       -0.2295
      9 C          64.0172   94.2320   -1.1973 C.ar    1  UNL1        0.1317
     10 C          62.6481   94.2532   -0.5848 C.ar    1  UNL1        0.0322
     11 C          61.4342   94.1278   -1.4571 C.ar    1  UNL1        0.0536
     12 C          62.8062   94.4090    0.8986 C.3     1  UNL1        0.1157
     13 C          64.2731   94.4842    1.2030 C.2     1  UNL1        0.2317
     14 O          64.8843   94.6412    2.5638 O.2     1  UNL1       -0.2744
     15 N          65.0215   94.3748   -0.0924 N.am    1  UNL1       -0.2693
     16 H          66.0001   94.3934   -0.1986 H       1  UNL1        0.1563
     17 C          57.7927   93.7517   -4.0739 C.ar    1  UNL1        0.1167
     18 C          57.2308   92.3966   -4.3870 C.ar    1  UNL1        0.1898
     19 F          57.8828   91.1669   -3.8278 F       1  UNL1       -0.1996
     20 C          56.0169   92.2713   -5.2593 C.ar    1  UNL1        0.1704
     21 C          55.3649   93.5010   -5.8184 C.ar    1  UNL1        0.0785
     22 C          55.9269   94.8561   -5.5053 C.ar    1  UNL1        0.1704
     23 C          57.1407   94.9814   -4.6331 C.ar    1  UNL1        0.1898
     24 F          57.7026   96.3365   -4.3200 F       1  UNL1       -0.1996
     25 O          55.4550   90.9162   -5.5723 O.3     1  UNL1       -0.4690
     26 C          54.8891   90.6350   -6.9327 C.3     1  UNL1        0.2526
     27 O          55.2749   96.0859   -6.0645 O.3     1  UNL1       -0.4690
     28 C          53.7797   96.2052   -6.0705 C.3     1  UNL1        0.2526
     29 C          59.5445   93.1055    1.4770 C.3     1  UNL1        0.0237
     30 C          59.9098   94.2955    0.6401 C.3     1  UNL1        0.0998
@<TRIPOS>BOND
     1    29    30    1
     2    30     1    1
     3     1     2   am
     4     2     3    2
     5     2     4   am
     6     4    17    1
     7    17    18   ar
     8    18    19    1
     9    18    20   ar
    10    20    25    1
    11    25    26    1
    12    20    21   ar
    13    21    22   ar
    14    22    27    1
    15    27    28    1
    16    22    23   ar
    17    23    24    1
    18     4     5    1
    19     5     6    1
    20     6     7   ar
    21     7     8   ar
    22     8     9   ar
    23     9    10   ar
    24    10    11   ar
    25    10    12    1
    26    12    13    1
    27    13    14    2
    28    13    15   am
    29    11     1    1
    30    23    17   ar
    31    11     6   ar
    32    15     9    1
    33    15    16    1
