@<TRIPOS>MOLECULE
*****
 44 48 0 0 0
SMALL
GASTEIGER

@<TRIPOS>ATOM
      1 C          64.2550   88.1500   14.3412 C.ar    1  UNL1        0.2006
      2 N          63.2981   87.9992   13.1961 N.ar    1  UNL1       -0.2000
      3 C          62.8875   86.6314   12.7369 C.ar    1  UNL1        0.1379
      4 C          63.4339   85.4146   13.4230 C.ar    1  UNL1        0.0673
      5 C          63.2128   83.9488   13.1937 C.ar    1  UNL1        0.0265
      6 C          64.0332   83.1938   14.1972 C.ar    1  UNL1        0.1007
      7 N          64.7613   84.1929   15.0466 N.ar    1  UNL1       -0.2268
      8 C          64.3909   85.5655   14.5682 C.ar    1  UNL1        0.1452
      9 N          64.8015   86.9332   15.0273 N.ar    1  UNL1       -0.3118
     10 H          65.4296   87.0322   15.7789 H       1  UNL1        0.1700
     11 N          64.6656   89.5178   14.8004 N.pl3   1  UNL1       -0.2816
     12 H          64.6895   89.7277   15.7620 H       1  UNL1        0.1551
     13 C          63.7572   91.9769   10.3139 C.3     1  UNL1        0.0307
     14 C          64.5856   91.7952   11.5512 C.ar    1  UNL1       -0.0244
     15 C          64.2114   90.7474   12.5571 C.ar    1  UNL1        0.0132
     16 C          65.0398   90.5656   13.7944 C.ar    1  UNL1        0.0845
     17 C          66.2424   91.4318   14.0257 C.ar    1  UNL1        0.1513
     18 C          66.6166   92.4797   13.0197 C.ar    1  UNL1        0.0336
     19 C          65.7883   92.6614   11.7825 C.ar    1  UNL1       -0.0233
     20 C          66.1625   93.7092   10.7765 C.3     1  UNL1        0.0249
     21 C          67.1714   93.3993    9.7107 C.3     1  UNL1        0.0217
     22 C          67.5456   94.4472    8.7047 C.3     1  UNL1        0.0725
     23 N          66.9109   95.8049    8.7646 N.3     1  UNL1       -0.2715
     24 C          67.2850   96.8529    7.7587 C.3     1  UNL1        0.0896
     25 C          65.9020   96.1148    9.8305 C.3     1  UNL1        0.0725
     26 C          65.5278   95.0670   10.8364 C.3     1  UNL1        0.0217
     27 O          67.0708   91.2501   15.2629 O.3     1  UNL1       -0.4779
     28 C          67.9651   92.3575   15.7360 C.3     1  UNL1        0.1662
     29 C          67.5469   93.7870   15.5586 C.3     1  UNL1        0.0472
     30 C          69.2777   92.0353   16.3866 C.3     1  UNL1        0.0472
     31 N          61.9305   86.4806   11.5917 N.pl3   1  UNL1       -0.2968
     32 H          61.7289   85.5861   11.2332 H       1  UNL1        0.1536
     33 C          61.2805   87.6926   10.9929 C.ar    1  UNL1        0.0667
     34 C          60.8949   88.8471   11.8694 C.ar    1  UNL1        0.0159
     35 C          60.2449   90.0591   11.2705 C.ar    1  UNL1        0.0014
     36 C          59.9806   90.1165    9.7951 C.ar    1  UNL1        0.0014
     37 C          60.3661   88.9619    8.9186 C.ar    1  UNL1        0.0196
     38 C          61.0161   87.7499    9.5175 C.ar    1  UNL1        0.1189
     39 S          61.4017   86.5954    8.6410 S.O2    1  UNL1        0.0082
     40 O          59.9548   86.3443    8.3352 O.2     1  UNL1       -0.1686
     41 O          62.8485   86.8464    8.9469 O.2     1  UNL1       -0.1686
     42 C          61.7873   85.4408    7.7645 C.3     1  UNL1        0.1340
     43 C          63.0990   84.7445    7.9752 C.3     1  UNL1        0.0257
     44 C          60.8610   84.9825    6.6773 C.3     1  UNL1        0.0257
@<TRIPOS>BOND
     1    13    14    1
     2    14    15   ar
     3    15    16   ar
     4    16    11    1
     5    11     1    1
     6     1     2   ar
     7     2     3   ar
     8     3    31    1
     9    31    33    1
    10    33    34   ar
    11    34    35   ar
    12    35    36   ar
    13    36    37   ar
    14    37    38   ar
    15    38    39    1
    16    39    40    2
    17    39    41    2
    18    39    42    1
    19    42    43    1
    20    42    44    1
    21     3     4   ar
    22     4     5   ar
    23     5     6   ar
    24     6     7   ar
    25     7     8   ar
    26     8     9   ar
    27    16    17   ar
    28    17    27    1
    29    27    28    1
    30    28    29    1
    31    28    30    1
    32    17    18   ar
    33    18    19   ar
    34    19    20    1
    35    20    21    1
    36    21    22    1
    37    22    23    1
    38    23    24    1
    39    23    25    1
    40    25    26    1
    41    19    14   ar
    42    26    20    1
    43     9     1   ar
    44    38    33   ar
    45     8     4    1
    46    11    12    1
    47    31    32    1
    48     9    10    1
@<TRIPOS>MOLECULE
*****
 44 48 0 0 0
SMALL
GASTEIGER

@<TRIPOS>ATOM
      1 C          64.2342   88.2049   14.3748 C.ar    1  UNL1        0.2006
      2 N          63.2519   88.0222   13.2561 N.ar    1  UNL1       -0.2000
      3 C          62.8620   86.6414   12.8183 C.ar    1  UNL1        0.1379
      4 C          63.4545   85.4434   13.4994 C.ar    1  UNL1        0.0673
      5 C          63.2621   83.9710   13.2872 C.ar    1  UNL1        0.0265
      6 C          64.1257   83.2438   14.2749 C.ar    1  UNL1        0.1007
      7 N          64.8517   84.2667   15.0974 N.ar    1  UNL1       -0.2268
      8 C          64.4369   85.6262   14.6181 C.ar    1  UNL1        0.1452
      9 N          64.8268   87.0069   15.0558 N.ar    1  UNL1       -0.3118
     10 H          65.4715   87.1269   15.7900 H       1  UNL1        0.1700
     11 N          64.6242   89.5856   14.8125 N.pl3   1  UNL1       -0.2816
     12 H          64.6245   89.8170   15.7694 H       1  UNL1        0.1551
     13 C          63.7670   91.9770   10.2796 C.3     1  UNL1        0.0307
     14 C          64.5851   91.8096   11.5257 C.ar    1  UNL1       -0.0244
     15 C          64.1956   90.7813   12.5460 C.ar    1  UNL1        0.0132
     16 C          65.0136   90.6139   13.7922 C.ar    1  UNL1        0.0845
     17 C          66.2211   91.4747   14.0180 C.ar    1  UNL1        0.1513
     18 C          66.6106   92.5030   12.9976 C.ar    1  UNL1        0.0336
     19 C          65.7926   92.6704   11.7515 C.ar    1  UNL1       -0.0233
     20 C          66.1820   93.6986   10.7312 C.3     1  UNL1        0.0249
     21 C          65.5772   95.0704   10.7802 C.3     1  UNL1        0.0217
     22 C          65.9666   96.0986    9.7598 C.3     1  UNL1        0.0725
     23 N          66.9609   95.7550    8.6906 N.3     1  UNL1       -0.2715
     24 C          67.3504   96.7832    7.6701 C.3     1  UNL1        0.0896
     25 C          67.5658   94.3833    8.6416 C.3     1  UNL1        0.0725
     26 C          67.1763   93.3550    9.6620 C.3     1  UNL1        0.0217
     27 O          67.0391   91.3073   15.2641 O.3     1  UNL1       -0.4779
     28 C          67.9514   92.4089   15.7160 C.3     1  UNL1        0.1662
     29 C          69.2463   92.0783   16.3973 C.3     1  UNL1        0.0472
     30 C          67.5689   93.8410   15.4866 C.3     1  UNL1        0.0472
     31 N          61.8796   86.4587   11.6996 N.pl3   1  UNL1       -0.2968
     32 H          60.9519   86.7717   11.8031 H       1  UNL1        0.1536
     33 C          62.3105   85.7992   10.4232 C.ar    1  UNL1        0.0667
     34 C          63.1523   84.5584   10.4671 C.ar    1  UNL1        0.0159
     35 C          63.5832   83.8989    9.1907 C.ar    1  UNL1        0.0014
     36 C          63.1725   84.4803    7.8703 C.ar    1  UNL1        0.0014
     37 C          62.3308   85.7211    7.8264 C.ar    1  UNL1        0.0196
     38 C          61.8998   86.3805    9.1029 C.ar    1  UNL1        0.1189
     39 S          61.0581   87.6213    9.0589 S.O2    1  UNL1        0.0082
     40 O          62.1855   88.4074    9.6598 O.2     1  UNL1       -0.1686
     41 O          59.9307   86.8353    8.4581 O.2     1  UNL1       -0.1686
     42 C          60.2164   88.8621    9.0150 C.3     1  UNL1        0.1340
     43 C          60.1125   89.7413   10.2259 C.3     1  UNL1        0.0257
     44 C          59.4785   89.2238    7.7601 C.3     1  UNL1        0.0257
@<TRIPOS>BOND
     1    13    14    1
     2    14    15   ar
     3    15    16   ar
     4    16    11    1
     5    11     1    1
     6     1     2   ar
     7     2     3   ar
     8     3    31    1
     9    31    33    1
    10    33    34   ar
    11    34    35   ar
    12    35    36   ar
    13    36    37   ar
    14    37    38   ar
    15    38    39    1
    16    39    40    2
    17    39    41    2
    18    39    42    1
    19    42    43    1
    20    42    44    1
    21     3     4   ar
    22     4     5   ar
    23     5     6   ar
    24     6     7   ar
    25     7     8   ar
    26     8     9   ar
    27    16    17   ar
    28    17    27    1
    29    27    28    1
    30    28    29    1
    31    28    30    1
    32    17    18   ar
    33    18    19   ar
    34    19    20    1
    35    20    21    1
    36    21    22    1
    37    22    23    1
    38    23    24    1
    39    23    25    1
    40    25    26    1
    41    19    14   ar
    42    26    20    1
    43     9     1   ar
    44    38    33   ar
    45     8     4    1
    46    11    12    1
    47    31    32    1
    48     9    10    1
@<TRIPOS>MOLECULE
*****
 44 48 0 0 0
SMALL
GASTEIGER

@<TRIPOS>ATOM
      1 C          61.4888   88.7457   11.3508 C.ar    1  UNL1        0.2006
      2 N          62.1895   87.5067   11.8236 N.ar    1  UNL1       -0.2000
      3 C          62.1780   86.2689   10.9763 C.ar    1  UNL1        0.1379
      4 C          61.4658   86.2703    9.6562 C.ar    1  UNL1        0.0673
      5 C          61.2849   85.2085    8.6123 C.ar    1  UNL1        0.0265
      6 C          60.4724   85.7914    7.4942 C.ar    1  UNL1        0.1007
      7 N          60.1511   87.2134    7.8472 N.ar    1  UNL1       -0.2268
      8 C          60.7651   87.5094    9.1834 C.ar    1  UNL1        0.1452
      9 N          60.7766   88.7471   10.0307 N.ar    1  UNL1       -0.3118
     10 H          60.3167   89.5604    9.7203 H       1  UNL1        0.1700
     11 N          61.5003   89.9835   12.1980 N.pl3   1  UNL1       -0.2816
     12 H          60.6532   90.4251   12.4360 H       1  UNL1        0.1551
     13 C          65.7466   92.8599   11.3633 C.3     1  UNL1        0.0307
     14 C          64.9257   91.9867   12.2654 C.ar    1  UNL1       -0.0244
     15 C          63.6235   91.4217   11.7807 C.ar    1  UNL1        0.0132
     16 C          62.8026   90.5485   12.6827 C.ar    1  UNL1        0.0845
     17 C          63.2840   90.2402   14.0695 C.ar    1  UNL1        0.1513
     18 C          64.5863   90.8052   14.5543 C.ar    1  UNL1        0.0336
     19 C          65.4071   91.6783   13.6523 C.ar    1  UNL1       -0.0233
     20 C          66.7094   92.2433   14.1370 C.3     1  UNL1        0.0249
     21 C          66.7197   93.2853   15.2159 C.3     1  UNL1        0.0217
     22 C          68.0219   93.8502   15.7006 C.3     1  UNL1        0.0725
     23 N          69.3139   93.3732   15.1064 N.3     1  UNL1       -0.2715
     24 C          70.6163   93.9381   15.5910 C.3     1  UNL1        0.0896
     25 C          69.3036   92.3312   14.0274 C.3     1  UNL1        0.0725
     26 C          68.0014   91.7662   13.5427 C.3     1  UNL1        0.0217
     27 O          62.4632   89.3670   14.9716 O.3     1  UNL1       -0.4779
     28 C          62.8623   89.1853   16.4061 C.3     1  UNL1        0.1662
     29 C          62.6796   87.8540   17.0725 C.3     1  UNL1        0.0472
     30 C          63.4442   90.3349   17.1740 C.3     1  UNL1        0.0472
     31 N          62.8788   85.0298   11.4492 N.pl3   1  UNL1       -0.2968
     32 H          62.9458   84.2459   10.8574 H       1  UNL1        0.1536
     33 C          63.4774   84.9850   12.8239 C.ar    1  UNL1        0.0667
     34 C          63.8600   86.2589   13.5172 C.ar    1  UNL1        0.0159
     35 C          64.4586   86.2141   14.8918 C.ar    1  UNL1        0.0014
     36 C          64.6746   84.8953   15.5731 C.ar    1  UNL1        0.0014
     37 C          64.2920   83.6214   14.8798 C.ar    1  UNL1        0.0196
     38 C          63.6934   83.6662   13.5052 C.ar    1  UNL1        0.1189
     39 S          63.3108   82.3923   12.8118 S.O2    1  UNL1        0.0082
     40 O          62.1797   82.2055   13.7792 O.2     1  UNL1       -0.1686
     41 O          64.4419   82.5791   11.8445 O.2     1  UNL1       -0.1686
     42 C          62.9282   81.1184   12.1185 C.3     1  UNL1        0.1340
     43 C          62.3748   79.9707   12.9100 C.3     1  UNL1        0.0257
     44 C          63.0991   80.9922   10.6336 C.3     1  UNL1        0.0257
@<TRIPOS>BOND
     1    13    14    1
     2    14    15   ar
     3    15    16   ar
     4    16    11    1
     5    11     1    1
     6     1     2   ar
     7     2     3   ar
     8     3    31    1
     9    31    33    1
    10    33    34   ar
    11    34    35   ar
    12    35    36   ar
    13    36    37   ar
    14    37    38   ar
    15    38    39    1
    16    39    40    2
    17    39    41    2
    18    39    42    1
    19    42    43    1
    20    42    44    1
    21     3     4   ar
    22     4     5   ar
    23     5     6   ar
    24     6     7   ar
    25     7     8   ar
    26     8     9   ar
    27    16    17   ar
    28    17    27    1
    29    27    28    1
    30    28    29    1
    31    28    30    1
    32    17    18   ar
    33    18    19   ar
    34    19    20    1
    35    20    21    1
    36    21    22    1
    37    22    23    1
    38    23    24    1
    39    23    25    1
    40    25    26    1
    41    19    14   ar
    42    26    20    1
    43     9     1   ar
    44    38    33   ar
    45     8     4    1
    46    11    12    1
    47    31    32    1
    48     9    10    1
@<TRIPOS>MOLECULE
*****
 44 48 0 0 0
SMALL
GASTEIGER

@<TRIPOS>ATOM
      1 C          64.6521   91.5266   13.1171 C.ar    1  UNL1        0.2006
      2 N          65.1330   92.7998   12.4868 N.ar    1  UNL1       -0.2000
      3 C          66.3670   93.4752   13.0076 C.ar    1  UNL1        0.1379
      4 C          67.1200   92.8772   14.1589 C.ar    1  UNL1        0.0673
      5 C          68.3596   93.3131   14.8822 C.ar    1  UNL1        0.0265
      6 C          68.6448   92.3093   15.9596 C.ar    1  UNL1        0.1007
      7 N          67.5814   91.2529   15.9022 N.ar    1  UNL1       -0.2268
      8 C          66.6390   91.6039   14.7893 C.ar    1  UNL1        0.1452
      9 N          65.4050   90.9286   14.2684 N.ar    1  UNL1       -0.3118
     10 H          65.0893   90.0929   14.6821 H       1  UNL1        0.1700
     11 N          63.4181   90.8512   12.5963 N.pl3   1  UNL1       -0.2816
     12 H          62.6722   91.3903   12.2466 H       1  UNL1        0.1551
     13 C          64.4288   86.2940   14.8790 C.3     1  UNL1        0.0307
     14 C          63.8259   87.0758   13.7497 C.ar    1  UNL1       -0.0244
     15 C          63.9234   88.5726   13.7376 C.ar    1  UNL1        0.0132
     16 C          63.3205   89.3545   12.6084 C.ar    1  UNL1        0.0845
     17 C          62.6201   88.6395   11.4911 C.ar    1  UNL1        0.1513
     18 C          62.5226   87.1426   11.5032 C.ar    1  UNL1        0.0336
     19 C          63.1255   86.3609   12.6324 C.ar    1  UNL1       -0.0233
     20 C          63.0279   84.8641   12.6445 C.3     1  UNL1        0.0249
     21 C          62.4440   84.1601   13.8333 C.3     1  UNL1        0.0217
     22 C          62.3465   82.6633   13.8454 C.3     1  UNL1        0.0725
     23 N          62.8329   81.8706   12.6686 N.3     1  UNL1       -0.2715
     24 C          62.7355   80.3737   12.6805 C.3     1  UNL1        0.0896
     25 C          63.4168   82.5746   11.4797 C.3     1  UNL1        0.0725
     26 C          63.5143   84.0713   11.4676 C.3     1  UNL1        0.0217
     27 O          62.0172   89.4213   10.3618 O.3     1  UNL1       -0.4779
     28 C          60.5274   89.4691   10.1941 C.3     1  UNL1        0.1662
     29 C          59.9051   89.0499    8.8953 C.3     1  UNL1        0.0472
     30 C          59.6600   89.9362   11.3252 C.3     1  UNL1        0.0472
     31 N          66.8479   94.7485   12.3771 N.pl3   1  UNL1       -0.2968
     32 H          67.5728   95.2638   12.7995 H       1  UNL1        0.1536
     33 C          66.2245   95.2367   11.1032 C.ar    1  UNL1        0.0667
     34 C          65.2399   96.3678   11.1353 C.ar    1  UNL1        0.0159
     35 C          64.6165   96.8559    9.8613 C.ar    1  UNL1        0.0014
     36 C          64.9778   96.2130    8.5552 C.ar    1  UNL1        0.0014
     37 C          65.9625   95.0819    8.5230 C.ar    1  UNL1        0.0196
     38 C          66.5858   94.5937    9.7970 C.ar    1  UNL1        0.1189
     39 S          67.5705   93.4626    9.7648 S.O2    1  UNL1        0.0082
     40 O          66.4532   92.4840    9.9747 O.2     1  UNL1       -0.1686
     41 O          68.6878   94.4412    9.5550 O.2     1  UNL1       -0.1686
     42 C          68.5552   92.3315    9.7327 C.3     1  UNL1        0.1340
     43 C          68.7694   91.4886   10.9548 C.3     1  UNL1        0.0257
     44 C          69.3256   92.0434    8.4783 C.3     1  UNL1        0.0257
@<TRIPOS>BOND
     1    13    14    1
     2    14    15   ar
     3    15    16   ar
     4    16    11    1
     5    11     1    1
     6     1     2   ar
     7     2     3   ar
     8     3    31    1
     9    31    33    1
    10    33    34   ar
    11    34    35   ar
    12    35    36   ar
    13    36    37   ar
    14    37    38   ar
    15    38    39    1
    16    39    40    2
    17    39    41    2
    18    39    42    1
    19    42    43    1
    20    42    44    1
    21     3     4   ar
    22     4     5   ar
    23     5     6   ar
    24     6     7   ar
    25     7     8   ar
    26     8     9   ar
    27    16    17   ar
    28    17    27    1
    29    27    28    1
    30    28    29    1
    31    28    30    1
    32    17    18   ar
    33    18    19   ar
    34    19    20    1
    35    20    21    1
    36    21    22    1
    37    22    23    1
    38    23    24    1
    39    23    25    1
    40    25    26    1
    41    19    14   ar
    42    26    20    1
    43     9     1   ar
    44    38    33   ar
    45     8     4    1
    46    11    12    1
    47    31    32    1
    48     9    10    1
@<TRIPOS>MOLECULE
*****
 44 48 0 0 0
SMALL
GASTEIGER

@<TRIPOS>ATOM
      1 C          63.8119   90.4732   12.5882 C.ar    1  UNL1        0.2006
      2 N          64.9576   91.3002   12.0850 N.ar    1  UNL1       -0.2000
      3 C          65.7292   92.1691   13.0337 C.ar    1  UNL1        0.1379
      4 C          65.3548   92.2108   14.4857 C.ar    1  UNL1        0.0673
      5 C          65.9269   92.9664   15.6483 C.ar    1  UNL1        0.0265
      6 C          65.1347   92.6063   16.8701 C.ar    1  UNL1        0.1007
      7 N          64.0730   91.6282   16.4626 N.ar    1  UNL1       -0.2268
      8 C          64.2090   91.3838   14.9889 C.ar    1  UNL1        0.1452
      9 N          63.4376   90.5150   14.0402 N.ar    1  UNL1       -0.3118
     10 H          62.6856   89.9722   14.3704 H       1  UNL1        0.1700
     11 N          63.0404   89.6044   11.6395 N.pl3   1  UNL1       -0.2816
     12 H          62.5955   90.0036   10.8573 H       1  UNL1        0.1551
     13 C          64.2626   85.4240   14.4735 C.3     1  UNL1        0.0307
     14 C          63.5579   86.0369   13.2997 C.ar    1  UNL1       -0.0244
     15 C          63.6515   87.5141   13.0565 C.ar    1  UNL1        0.0132
     16 C          62.9468   88.1272   11.8828 C.ar    1  UNL1        0.0845
     17 C          62.1486   87.2630   10.9522 C.ar    1  UNL1        0.1513
     18 C          62.0550   85.7857   11.1954 C.ar    1  UNL1        0.0336
     19 C          62.7596   85.1728   12.3691 C.ar    1  UNL1       -0.0233
     20 C          62.6660   83.6956   12.6123 C.3     1  UNL1        0.0249
     21 C          62.1345   83.1826   13.9178 C.3     1  UNL1        0.0217
     22 C          62.0409   81.7054   14.1610 C.3     1  UNL1        0.0725
     23 N          62.4789   80.7412   13.0988 N.3     1  UNL1       -0.2715
     24 C          62.3853   79.2640   13.3419 C.3     1  UNL1        0.0896
     25 C          63.0104   81.2542   11.7932 C.3     1  UNL1        0.0725
     26 C          63.1040   82.7314   11.5500 C.3     1  UNL1        0.0217
     27 O          61.4439   87.8760    9.7785 O.3     1  UNL1       -0.4779
     28 C          60.7882   86.9973    8.7548 C.3     1  UNL1        0.1662
     29 C          61.6051   85.9985    7.9898 C.3     1  UNL1        0.0472
     30 C          59.3155   87.1173    8.4961 C.3     1  UNL1        0.0472
     31 N          66.8749   92.9961   12.5304 N.pl3   1  UNL1       -0.2968
     32 H          67.2722   93.6889   13.1061 H       1  UNL1        0.1536
     33 C          67.4154   92.7675   11.1500 C.ar    1  UNL1        0.0667
     34 C          68.2295   91.5423   10.8566 C.ar    1  UNL1        0.0159
     35 C          68.7700   91.3137    9.4762 C.ar    1  UNL1        0.0014
     36 C          68.4963   92.3104    8.3891 C.ar    1  UNL1        0.0014
     37 C          67.6822   93.5357    8.6825 C.ar    1  UNL1        0.0196
     38 C          67.1418   93.7642   10.0630 C.ar    1  UNL1        0.1189
     39 S          66.3277   94.9894   10.3563 S.O2    1  UNL1        0.0082
     40 O          65.0836   94.1525   10.3989 O.2     1  UNL1       -0.1686
     41 O          67.5718   95.8262   10.3138 O.2     1  UNL1       -0.1686
     42 C          65.5136   96.2146   10.6497 C.3     1  UNL1        0.1340
     43 C          65.5837   96.8551   12.0043 C.3     1  UNL1        0.0257
     44 C          64.6294   96.7994    9.5884 C.3     1  UNL1        0.0257
@<TRIPOS>BOND
     1    13    14    1
     2    14    15   ar
     3    15    16   ar
     4    16    11    1
     5    11     1    1
     6     1     2   ar
     7     2     3   ar
     8     3    31    1
     9    31    33    1
    10    33    34   ar
    11    34    35   ar
    12    35    36   ar
    13    36    37   ar
    14    37    38   ar
    15    38    39    1
    16    39    40    2
    17    39    41    2
    18    39    42    1
    19    42    43    1
    20    42    44    1
    21     3     4   ar
    22     4     5   ar
    23     5     6   ar
    24     6     7   ar
    25     7     8   ar
    26     8     9   ar
    27    16    17   ar
    28    17    27    1
    29    27    28    1
    30    28    29    1
    31    28    30    1
    32    17    18   ar
    33    18    19   ar
    34    19    20    1
    35    20    21    1
    36    21    22    1
    37    22    23    1
    38    23    24    1
    39    23    25    1
    40    25    26    1
    41    19    14   ar
    42    26    20    1
    43     9     1   ar
    44    38    33   ar
    45     8     4    1
    46    11    12    1
    47    31    32    1
    48     9    10    1
@<TRIPOS>MOLECULE
*****
 44 48 0 0 0
SMALL
GASTEIGER

@<TRIPOS>ATOM
      1 C          62.1290   87.7759   11.4518 C.ar    1  UNL1        0.2006
      2 N          63.0647   86.6428   11.7524 N.ar    1  UNL1       -0.2000
      3 C          63.2345   85.5277   10.7635 C.ar    1  UNL1        0.1379
      4 C          62.4685   85.5459    9.4739 C.ar    1  UNL1        0.0673
      5 C          62.4303   84.5935    8.3157 C.ar    1  UNL1        0.0265
      6 C          61.4710   85.1381    7.2993 C.ar    1  UNL1        0.1007
      7 N          60.9163   86.4271    7.8293 N.ar    1  UNL1       -0.2268
      8 C          61.5328   86.6791    9.1733 C.ar    1  UNL1        0.1452
      9 N          61.3630   87.7941   10.1622 N.ar    1  UNL1       -0.3118
     10 H          60.7489   88.5378    9.9650 H       1  UNL1        0.1700
     11 N          61.9592   88.8909   12.4407 N.pl3   1  UNL1       -0.2816
     12 H          61.0630   89.1148   12.7811 H       1  UNL1        0.1551
     13 C          65.4852   92.6302   11.6752 C.3     1  UNL1        0.0307
     14 C          64.9180   91.5345   12.5282 C.ar    1  UNL1       -0.0244
     15 C          63.7222   90.7606   12.0580 C.ar    1  UNL1        0.0132
     16 C          63.1550   89.6648   12.9110 C.ar    1  UNL1        0.0845
     17 C          63.7837   89.3429   14.2343 C.ar    1  UNL1        0.1513
     18 C          64.9796   90.1168   14.7046 C.ar    1  UNL1        0.0336
     19 C          65.5467   91.2125   13.8516 C.ar    1  UNL1       -0.0233
     20 C          66.7425   91.9864   14.3218 C.3     1  UNL1        0.0249
     21 C          66.5871   93.0361   15.3820 C.3     1  UNL1        0.0217
     22 C          67.7829   93.8100   15.8523 C.3     1  UNL1        0.0725
     23 N          69.1341   93.5341   15.2623 N.3     1  UNL1       -0.2715
     24 C          70.3301   94.3080   15.7325 C.3     1  UNL1        0.0896
     25 C          69.2896   92.4844   14.2022 C.3     1  UNL1        0.0725
     26 C          68.0938   91.7106   13.7319 C.3     1  UNL1        0.0217
     27 O          63.2166   88.2472   15.0873 O.3     1  UNL1       -0.4779
     28 C          63.0241   88.4656   16.5588 C.3     1  UNL1        0.1662
     29 C          63.1176   89.8494   17.1301 C.3     1  UNL1        0.0472
     30 C          62.7380   87.3003   17.4589 C.3     1  UNL1        0.0472
     31 N          64.1702   84.3946   11.0641 N.pl3   1  UNL1       -0.2968
     32 H          65.1433   84.5440   11.0551 H       1  UNL1        0.1536
     33 C          63.6234   83.0337   11.3787 C.ar    1  UNL1        0.0667
     34 C          63.4295   82.0309   10.2801 C.ar    1  UNL1        0.0159
     35 C          62.8827   80.6701   10.5947 C.ar    1  UNL1        0.0014
     36 C          62.5298   80.3120   12.0080 C.ar    1  UNL1        0.0014
     37 C          62.7236   81.3147   13.1065 C.ar    1  UNL1        0.0196
     38 C          63.2705   82.6756   12.7919 C.ar    1  UNL1        0.1189
     39 S          63.4643   83.6783   13.8905 S.O2    1  UNL1        0.0082
     40 O          64.9489   83.6165   13.6849 O.2     1  UNL1       -0.1686
     41 O          61.9798   83.7401   14.0960 O.2     1  UNL1       -0.1686
     42 C          63.6582   84.6811   14.9891 C.3     1  UNL1        0.1340
     43 C          64.8503   85.5913   14.9720 C.3     1  UNL1        0.0257
     44 C          62.6598   84.7735   16.1048 C.3     1  UNL1        0.0257
@<TRIPOS>BOND
     1    13    14    1
     2    14    15   ar
     3    15    16   ar
     4    16    11    1
     5    11     1    1
     6     1     2   ar
     7     2     3   ar
     8     3    31    1
     9    31    33    1
    10    33    34   ar
    11    34    35   ar
    12    35    36   ar
    13    36    37   ar
    14    37    38   ar
    15    38    39    1
    16    39    40    2
    17    39    41    2
    18    39    42    1
    19    42    43    1
    20    42    44    1
    21     3     4   ar
    22     4     5   ar
    23     5     6   ar
    24     6     7   ar
    25     7     8   ar
    26     8     9   ar
    27    16    17   ar
    28    17    27    1
    29    27    28    1
    30    28    29    1
    31    28    30    1
    32    17    18   ar
    33    18    19   ar
    34    19    20    1
    35    20    21    1
    36    21    22    1
    37    22    23    1
    38    23    24    1
    39    23    25    1
    40    25    26    1
    41    19    14   ar
    42    26    20    1
    43     9     1   ar
    44    38    33   ar
    45     8     4    1
    46    11    12    1
    47    31    32    1
    48     9    10    1
@<TRIPOS>MOLECULE
*****
 44 48 0 0 0
SMALL
GASTEIGER

@<TRIPOS>ATOM
      1 C          61.7561   86.9583   10.6363 C.ar    1  UNL1        0.2006
      2 N          62.7241   85.8929   11.0576 N.ar    1  UNL1       -0.2000
      3 C          63.1236   84.8176   10.0910 C.ar    1  UNL1        0.1379
      4 C          62.5549   84.8078    8.7031 C.ar    1  UNL1        0.0673
      5 C          62.7611   83.8828    7.5404 C.ar    1  UNL1        0.0265
      6 C          61.9205   84.3766    6.4005 C.ar    1  UNL1        0.1007
      7 N          61.1947   85.6068    6.8586 N.ar    1  UNL1       -0.2268
      8 C          61.5868   85.8734    8.2817 C.ar    1  UNL1        0.1452
      9 N          61.1875   86.9486    9.2483 N.ar    1  UNL1       -0.3118
     10 H          60.5521   87.6479    8.9718 H       1  UNL1        0.1700
     11 N          61.3567   88.0336   11.6029 N.pl3   1  UNL1       -0.2816
     12 H          60.4066   88.1716   11.8208 H       1  UNL1        0.1551
     13 C          65.0462   88.7309   15.1948 C.3     1  UNL1        0.0307
     14 C          64.2498   89.2474   14.0334 C.ar    1  UNL1       -0.0244
     15 C          63.2015   88.3823   13.3989 C.ar    1  UNL1        0.0132
     16 C          62.4050   88.8988   12.2374 C.ar    1  UNL1        0.0845
     17 C          62.6568   90.2804   11.7106 C.ar    1  UNL1        0.1513
     18 C          63.7052   91.1456   12.3451 C.ar    1  UNL1        0.0336
     19 C          64.5016   90.6291   13.5065 C.ar    1  UNL1       -0.0233
     20 C          65.5498   91.4942   14.1410 C.3     1  UNL1        0.0249
     21 C          65.3767   91.9683   15.5536 C.3     1  UNL1        0.0217
     22 C          66.4250   92.8334   16.1881 C.3     1  UNL1        0.0725
     23 N          67.6464   93.2245   15.4101 N.3     1  UNL1       -0.2715
     24 C          68.6948   94.0896   16.0446 C.3     1  UNL1        0.0896
     25 C          67.8195   92.7504   13.9975 C.3     1  UNL1        0.0725
     26 C          66.7712   91.8853   13.3630 C.3     1  UNL1        0.0217
     27 O          61.8604   90.7969   10.5491 O.3     1  UNL1       -0.4779
     28 C          60.4084   90.4437   10.4191 C.3     1  UNL1        0.1662
     29 C          59.9036   89.7960    9.1638 C.3     1  UNL1        0.0472
     30 C          59.4612   90.7381   11.5443 C.3     1  UNL1        0.0472
     31 N          64.0916   83.7520   10.5125 N.pl3   1  UNL1       -0.2968
     32 H          65.0606   83.9108   10.4401 H       1  UNL1        0.1536
     33 C          63.5835   82.4448   11.0442 C.ar    1  UNL1        0.0667
     34 C          63.2937   81.3138   10.1024 C.ar    1  UNL1        0.0159
     35 C          62.7855   80.0065   10.6342 C.ar    1  UNL1        0.0014
     36 C          62.5671   79.8303   12.1077 C.ar    1  UNL1        0.0014
     37 C          62.8569   80.9613   13.0495 C.ar    1  UNL1        0.0196
     38 C          63.3651   82.2685   12.5177 C.ar    1  UNL1        0.1189
     39 S          63.6549   83.3995   13.4594 S.O2    1  UNL1        0.0082
     40 O          62.2024   83.4644   13.8284 O.2     1  UNL1       -0.1686
     41 O          65.1073   83.3345   13.0905 O.2     1  UNL1       -0.1686
     42 C          63.9447   84.5305   14.4012 C.3     1  UNL1        0.1340
     43 C          65.2450   85.2720   14.3051 C.3     1  UNL1        0.0257
     44 C          62.9341   84.9199   15.4390 C.3     1  UNL1        0.0257
@<TRIPOS>BOND
     1    13    14    1
     2    14    15   ar
     3    15    16   ar
     4    16    11    1
     5    11     1    1
     6     1     2   ar
     7     2     3   ar
     8     3    31    1
     9    31    33    1
    10    33    34   ar
    11    34    35   ar
    12    35    36   ar
    13    36    37   ar
    14    37    38   ar
    15    38    39    1
    16    39    40    2
    17    39    41    2
    18    39    42    1
    19    42    43    1
    20    42    44    1
    21     3     4   ar
    22     4     5   ar
    23     5     6   ar
    24     6     7   ar
    25     7     8   ar
    26     8     9   ar
    27    16    17   ar
    28    17    27    1
    29    27    28    1
    30    28    29    1
    31    28    30    1
    32    17    18   ar
    33    18    19   ar
    34    19    20    1
    35    20    21    1
    36    21    22    1
    37    22    23    1
    38    23    24    1
    39    23    25    1
    40    25    26    1
    41    19    14   ar
    42    26    20    1
    43     9     1   ar
    44    38    33   ar
    45     8     4    1
    46    11    12    1
    47    31    32    1
    48     9    10    1
@<TRIPOS>MOLECULE
*****
 44 48 0 0 0
SMALL
GASTEIGER

@<TRIPOS>ATOM
      1 C          62.0645   90.1844    9.9638 C.ar    1  UNL1        0.2006
      2 N          62.3799   89.0514   10.8947 N.ar    1  UNL1       -0.2000
      3 C          61.6872   87.7309   10.7307 C.ar    1  UNL1        0.1379
      4 C          60.6791   87.5437    9.6359 C.ar    1  UNL1        0.0673
      5 C          59.8428   86.3657    9.2324 C.ar    1  UNL1        0.0265
      6 C          59.0105   86.7708    8.0521 C.ar    1  UNL1        0.1007
      7 N          59.3324   88.1991    7.7261 N.ar    1  UNL1       -0.2268
      8 C          60.3638   88.6768    8.7050 C.ar    1  UNL1        0.1452
      9 N          61.0564   89.9972    8.8689 N.ar    1  UNL1       -0.3118
     10 H          60.8494   90.7409    8.2579 H       1  UNL1        0.1700
     11 N          62.7571   91.5048   10.1277 N.pl3   1  UNL1       -0.2816
     12 H          62.4999   92.2691    9.5630 H       1  UNL1        0.1551
     13 C          64.9244   90.0991   14.6363 C.3     1  UNL1        0.0307
     14 C          64.9254   90.9578   13.4064 C.ar    1  UNL1       -0.0244
     15 C          63.8408   90.8020   12.3820 C.ar    1  UNL1        0.0132
     16 C          63.8417   91.6607   11.1521 C.ar    1  UNL1        0.0845
     17 C          64.9273   92.6752   10.9465 C.ar    1  UNL1        0.1513
     18 C          66.0119   92.8311   11.9710 C.ar    1  UNL1        0.0336
     19 C          66.0110   91.9724   13.2008 C.ar    1  UNL1       -0.0233
     20 C          67.0956   92.1283   14.2252 C.3     1  UNL1        0.0249
     21 C          68.5342   92.0034   13.8192 C.3     1  UNL1        0.0217
     22 C          69.6188   92.1592   14.8436 C.3     1  UNL1        0.0725
     23 N          69.2648   92.4399   16.2739 N.3     1  UNL1       -0.2715
     24 C          70.3493   92.5958   17.2984 C.3     1  UNL1        0.0896
     25 C          67.8261   92.5648   16.6799 C.3     1  UNL1        0.0725
     26 C          66.7415   92.4089   15.6555 C.3     1  UNL1        0.0217
     27 O          64.9283   93.5339    9.7166 O.3     1  UNL1       -0.4779
     28 C          65.8885   94.6806    9.6033 C.3     1  UNL1        0.1662
     29 C          65.5110   96.0306   10.1372 C.3     1  UNL1        0.0472
     30 C          67.2264   94.4774    8.9561 C.3     1  UNL1        0.0472
     31 N          62.0027   86.5979   11.6617 N.pl3   1  UNL1       -0.2968
     32 H          61.7083   86.6355   12.6004 H       1  UNL1        0.1536
     33 C          62.7666   85.4074   11.1625 C.ar    1  UNL1        0.0667
     34 C          62.8489   85.1326    9.6902 C.ar    1  UNL1        0.0159
     35 C          63.6128   83.9422    9.1910 C.ar    1  UNL1        0.0014
     36 C          64.2944   83.0265   10.1641 C.ar    1  UNL1        0.0014
     37 C          64.2121   83.3013   11.6364 C.ar    1  UNL1        0.0196
     38 C          63.4482   84.4918   12.1356 C.ar    1  UNL1        0.1189
     39 S          63.3659   84.7666   13.6079 S.O2    1  UNL1        0.0082
     40 O          61.8778   84.5850   13.5586 O.2     1  UNL1       -0.1686
     41 O          64.8540   84.9482   13.6572 O.2     1  UNL1       -0.1686
     42 C          63.2836   85.0414   15.0802 C.3     1  UNL1        0.1340
     43 C          62.3116   84.2802   15.9321 C.3     1  UNL1        0.0257
     44 C          64.1733   86.0775   15.7006 C.3     1  UNL1        0.0257
@<TRIPOS>BOND
     1    13    14    1
     2    14    15   ar
     3    15    16   ar
     4    16    11    1
     5    11     1    1
     6     1     2   ar
     7     2     3   ar
     8     3    31    1
     9    31    33    1
    10    33    34   ar
    11    34    35   ar
    12    35    36   ar
    13    36    37   ar
    14    37    38   ar
    15    38    39    1
    16    39    40    2
    17    39    41    2
    18    39    42    1
    19    42    43    1
    20    42    44    1
    21     3     4   ar
    22     4     5   ar
    23     5     6   ar
    24     6     7   ar
    25     7     8   ar
    26     8     9   ar
    27    16    17   ar
    28    17    27    1
    29    27    28    1
    30    28    29    1
    31    28    30    1
    32    17    18   ar
    33    18    19   ar
    34    19    20    1
    35    20    21    1
    36    21    22    1
    37    22    23    1
    38    23    24    1
    39    23    25    1
    40    25    26    1
    41    19    14   ar
    42    26    20    1
    43     9     1   ar
    44    38    33   ar
    45     8     4    1
    46    11    12    1
    47    31    32    1
    48     9    10    1
