@<TRIPOS>MOLECULE
*****
 34 38 0 0 0
SMALL
GASTEIGER

@<TRIPOS>ATOM
      1 C          58.5580   87.4865    7.4392 C.3     1  UNL1        0.0557
      2 C          59.7871   87.1422    8.2271 C.ar    1  UNL1        0.0995
      3 N          60.5128   85.8297    8.2000 N.ar    1  UNL1       -0.1705
      4 N          61.6805   85.9263    9.1366 N.ar    1  UNL1       -0.2308
      5 C          61.6764   87.2985    9.7426 C.ar    1  UNL1        0.1800
      6 N          62.5871   87.9607   10.7335 N.ar    1  UNL1       -0.2090
      7 C          62.3275   89.3745   11.1624 C.ar    1  UNL1        0.1527
      8 C          61.1573   90.1259   10.6003 C.ar    1  UNL1        0.1332
      9 N          60.2467   89.4636    9.6093 N.ar    1  UNL1       -0.2366
     10 C          60.5062   88.0499    9.1805 C.ar    1  UNL1        0.1319
     11 N          63.2382   90.0368   12.1534 N.pl3   1  UNL1       -0.2919
     12 C          63.8695   89.6287   13.4515 C.3     1  UNL1        0.0939
     13 C          64.5260   90.9734   13.5549 C.3     1  UNL1        0.0409
     14 C          63.8948   91.3815   12.2569 C.3     1  UNL1        0.0939
     15 C          65.4367   91.6357   14.5459 C.3     1  UNL1        0.0193
     16 C          64.9208   92.0131   15.9029 C.3     1  UNL1        0.0029
     17 C          65.8315   92.6754   16.8939 C.3     1  UNL1        0.0174
     18 C          67.2580   92.9602   16.5279 C.3     1  UNL1        0.0722
     19 N          67.7739   92.5828   15.1709 N.3     1  UNL1       -0.2706
     20 C          66.8632   91.9205   14.1799 C.3     1  UNL1        0.0722
     21 C          69.2003   92.8676   14.8049 C.3     1  UNL1        0.1042
     22 C          69.9215   91.9702   13.8433 C.3     1  UNL1        0.1544
     23 O          69.3046   91.6435   12.5156 O.3     1  UNL1       -0.3805
     24 H          68.4994   91.1204   12.6532 H       1  UNL1        0.2105
     25 C          62.6772   84.8413    9.4179 C.3     1  UNL1        0.1298
     26 C          63.4622   84.2340    8.2933 C.3     1  UNL1        0.0313
     27 C          62.8890   84.3634   10.8240 C.ar    1  UNL1        0.0106
     28 C          62.3067   85.1320   11.9730 C.ar    1  UNL1       -0.0007
     29 C          62.5185   84.6542   13.3789 C.ar    1  UNL1        0.0112
     30 C          63.3125   83.4078   13.6359 C.ar    1  UNL1        0.0585
     31 CL         63.5243   82.9301   15.0419 Cl      1  UNL1       -0.0822
     32 C          63.8948   82.6392   12.4869 C.ar    1  UNL1        0.0225
     33 C          63.6830   83.1171   11.0810 C.ar    1  UNL1        0.0563
     34 CL         64.2653   82.3485    9.9319 Cl      1  UNL1       -0.0825
@<TRIPOS>BOND
     1     1     2    1
     2     2     3   ar
     3     3     4   ar
     4     4    25    1
     5    25    26    1
     6    25    27    1
     7    27    28   ar
     8    28    29   ar
     9    29    30   ar
    10    30    31    1
    11    30    32   ar
    12    32    33   ar
    13    33    34    1
    14     4     5   ar
    15     5     6   ar
    16     6     7   ar
    17     7    11    1
    18    11    12    1
    19    12    13    1
    20    15    13    1
    21    15    16    1
    22    16    17    1
    23    17    18    1
    24    18    19    1
    25    19    21    1
    26    21    22    1
    27    22    23    1
    28    19    20    1
    29    13    14    1
    30     7     8   ar
    31     8     9   ar
    32     9    10   ar
    33    10     2   ar
    34    33    27   ar
    35    10     5   ar
    36    14    11    1
    37    20    15    1
    38    23    24    1
@<TRIPOS>MOLECULE
*****
 34 38 0 0 0
SMALL
GASTEIGER

@<TRIPOS>ATOM
      1 C          64.1913   84.2701   14.1566 C.3     1  UNL1        0.0557
      2 C          63.8767   85.6879   13.7813 C.ar    1  UNL1        0.0995
      3 N          64.2505   86.9110   14.5650 N.ar    1  UNL1       -0.1705
      4 N          63.7378   88.1105   13.8244 N.ar    1  UNL1       -0.2308
      5 C          63.0471   87.6286   12.5831 C.ar    1  UNL1        0.1800
      6 N          62.3512   88.3598   11.4736 N.ar    1  UNL1       -0.2090
      7 C          61.7411   87.5937   10.3375 C.ar    1  UNL1        0.1527
      8 C          61.8269   86.0964   10.3109 C.ar    1  UNL1        0.1332
      9 N          62.5228   85.3652   11.4204 N.ar    1  UNL1       -0.2366
     10 C          63.1330   86.1313   12.5565 C.ar    1  UNL1        0.1319
     11 N          61.0450   88.3249    9.2280 N.pl3   1  UNL1       -0.2919
     12 C          60.7160   89.7611    8.9470 C.3     1  UNL1        0.0939
     13 C          60.0608   89.3590    7.6589 C.3     1  UNL1        0.0409
     14 C          60.3899   87.9228    7.9399 C.3     1  UNL1        0.0939
     15 C          59.3648   90.0902    6.5495 C.3     1  UNL1        0.0193
     16 C          57.8714   90.0219    6.4273 C.3     1  UNL1        0.0029
     17 C          57.1754   90.7532    5.3178 C.3     1  UNL1        0.0174
     18 C          57.9729   91.5526    4.3304 C.3     1  UNL1        0.0722
     19 N          59.4664   91.6208    4.4526 N.3     1  UNL1       -0.2706
     20 C          60.1624   90.8896    5.5621 C.3     1  UNL1        0.0722
     21 C          60.2639   92.4202    3.4653 C.3     1  UNL1        0.1042
     22 C          59.5736   93.1067    2.3240 C.3     1  UNL1        0.1544
     23 O          59.3889   92.3904    1.0191 O.3     1  UNL1       -0.3805
     24 H          60.2550   92.2306    0.6125 H       1  UNL1        0.2105
     25 C          63.8891   89.5408   14.2504 C.3     1  UNL1        0.1298
     26 C          63.5097   89.9532   15.6416 C.3     1  UNL1        0.0313
     27 C          64.4201   90.5587   13.2849 C.ar    1  UNL1        0.0106
     28 C          63.6821   90.8390   12.0094 C.ar    1  UNL1       -0.0007
     29 C          64.2131   91.8569   11.0440 C.ar    1  UNL1        0.0112
     30 C          65.4819   92.5945   11.3541 C.ar    1  UNL1        0.0585
     31 CL         66.0128   93.6123   10.3887 Cl      1  UNL1       -0.0822
     32 C          66.2198   92.3141   12.6296 C.ar    1  UNL1        0.0225
     33 C          65.6889   91.2962   13.5949 C.ar    1  UNL1        0.0563
     34 CL         66.4268   91.0158   14.8705 Cl      1  UNL1       -0.0825
@<TRIPOS>BOND
     1     1     2    1
     2     2     3   ar
     3     3     4   ar
     4     4    25    1
     5    25    26    1
     6    25    27    1
     7    27    28   ar
     8    28    29   ar
     9    29    30   ar
    10    30    31    1
    11    30    32   ar
    12    32    33   ar
    13    33    34    1
    14     4     5   ar
    15     5     6   ar
    16     6     7   ar
    17     7    11    1
    18    11    12    1
    19    12    13    1
    20    15    13    1
    21    15    16    1
    22    16    17    1
    23    17    18    1
    24    18    19    1
    25    19    21    1
    26    21    22    1
    27    22    23    1
    28    19    20    1
    29    13    14    1
    30     7     8   ar
    31     8     9   ar
    32     9    10   ar
    33    10     2   ar
    34    33    27   ar
    35    10     5   ar
    36    14    11    1
    37    20    15    1
    38    23    24    1
@<TRIPOS>MOLECULE
*****
 34 38 0 0 0
SMALL
GASTEIGER

@<TRIPOS>ATOM
      1 C          62.7856   91.8927    2.8542 C.3     1  UNL1        0.0557
      2 C          62.6712   92.6396    1.5584 C.ar    1  UNL1        0.0995
      3 N          63.8089   93.2199    0.7718 N.ar    1  UNL1       -0.1705
      4 N          63.2397   93.8763   -0.4510 N.ar    1  UNL1       -0.2308
      5 C          61.7502   93.7016   -0.4202 C.ar    1  UNL1        0.1800
      6 N          60.6685   94.1397   -1.3624 N.ar    1  UNL1       -0.2090
      7 C          59.2355   93.8135   -1.0628 C.ar    1  UNL1        0.1527
      8 C          58.8841   93.0491    0.1791 C.ar    1  UNL1        0.1332
      9 N          59.9658   92.6110    1.1214 N.ar    1  UNL1       -0.2366
     10 C          61.3989   92.9372    0.8217 C.ar    1  UNL1        0.1319
     11 N          58.1537   94.2516   -2.0051 N.pl3   1  UNL1       -0.2919
     12 C          57.7076   95.5679   -2.5694 C.3     1  UNL1        0.0939
     13 C          56.6239   94.8713   -3.3377 C.3     1  UNL1        0.0409
     14 C          57.0699   93.5550   -2.7734 C.3     1  UNL1        0.0939
     15 C          55.5421   95.3095   -4.2799 C.3     1  UNL1        0.0193
     16 C          55.7457   95.1935   -5.7615 C.3     1  UNL1        0.0029
     17 C          54.6639   95.6317   -6.7037 C.3     1  UNL1        0.0174
     18 C          53.3786   96.1858   -6.1644 C.3     1  UNL1        0.0722
     19 N          53.1750   96.3017   -4.6828 N.3     1  UNL1       -0.2706
     20 C          54.2568   95.8636   -3.7406 C.3     1  UNL1        0.0722
     21 C          51.8898   96.8558   -4.1434 C.3     1  UNL1        0.1042
     22 C          50.9714   95.9787   -3.3450 C.3     1  UNL1        0.1544
     23 O          51.5258   95.1013   -2.2622 O.3     1  UNL1       -0.3805
     24 H          52.0963   94.4229   -2.6561 H       1  UNL1        0.2105
     25 C          64.0226   94.5832   -1.5175 C.3     1  UNL1        0.1298
     26 C          65.0295   95.6289   -1.1401 C.3     1  UNL1        0.0313
     27 C          63.7984   94.2445   -2.9615 C.ar    1  UNL1        0.0106
     28 C          64.2332   92.9119   -3.4956 C.ar    1  UNL1       -0.0007
     29 C          64.0090   92.5733   -4.9395 C.ar    1  UNL1        0.0112
     30 C          63.3500   93.5671   -5.8494 C.ar    1  UNL1        0.0585
     31 CL         63.1258   93.2284   -7.2934 Cl      1  UNL1       -0.0822
     32 C          62.9151   94.8997   -5.3154 C.ar    1  UNL1        0.0225
     33 C          63.1393   95.2383   -3.8715 C.ar    1  UNL1        0.0563
     34 CL         62.7045   96.5709   -3.3373 Cl      1  UNL1       -0.0825
@<TRIPOS>BOND
     1     1     2    1
     2     2     3   ar
     3     3     4   ar
     4     4    25    1
     5    25    26    1
     6    25    27    1
     7    27    28   ar
     8    28    29   ar
     9    29    30   ar
    10    30    31    1
    11    30    32   ar
    12    32    33   ar
    13    33    34    1
    14     4     5   ar
    15     5     6   ar
    16     6     7   ar
    17     7    11    1
    18    11    12    1
    19    12    13    1
    20    15    13    1
    21    15    16    1
    22    16    17    1
    23    17    18    1
    24    18    19    1
    25    19    21    1
    26    21    22    1
    27    22    23    1
    28    19    20    1
    29    13    14    1
    30     7     8   ar
    31     8     9   ar
    32     9    10   ar
    33    10     2   ar
    34    33    27   ar
    35    10     5   ar
    36    14    11    1
    37    20    15    1
    38    23    24    1
@<TRIPOS>MOLECULE
*****
 34 38 0 0 0
SMALL
GASTEIGER

@<TRIPOS>ATOM
      1 C          64.8755   92.0231   15.7107 C.3     1  UNL1        0.0557
      2 C          64.4000   91.2037   14.5478 C.ar    1  UNL1        0.0995
      3 N          63.9979   91.7319   13.2027 N.ar    1  UNL1       -0.1705
      4 N          63.5925   90.5668   12.3495 N.ar    1  UNL1       -0.2308
      5 C          63.7441   89.3184   13.1672 C.ar    1  UNL1        0.1800
      6 N          63.4921   87.8741   12.8501 N.ar    1  UNL1       -0.2090
      7 C          63.7393   86.8235   13.8917 C.ar    1  UNL1        0.1527
      8 C          64.2383   87.2171   15.2504 C.ar    1  UNL1        0.1332
      9 N          64.4903   88.6614   15.5675 N.ar    1  UNL1       -0.2366
     10 C          64.2431   89.7120   14.5258 C.ar    1  UNL1        0.1319
     11 N          63.4873   85.3791   13.5747 N.pl3   1  UNL1       -0.2919
     12 C          62.4309   84.6275   12.8204 C.3     1  UNL1        0.0939
     13 C          63.1310   83.3366   13.1264 C.3     1  UNL1        0.0409
     14 C          64.1874   84.0883   13.8806 C.3     1  UNL1        0.0939
     15 C          62.8790   81.8923   12.8093 C.3     1  UNL1        0.0193
     16 C          62.4969   80.9399   13.9034 C.3     1  UNL1        0.0029
     17 C          62.2450   79.4956   13.5863 C.3     1  UNL1        0.0174
     18 C          62.3751   79.0037   12.1752 C.3     1  UNL1        0.0722
     19 N          62.7572   79.9561   11.0812 N.3     1  UNL1       -0.2706
     20 C          63.0092   81.4004   11.3982 C.3     1  UNL1        0.0722
     21 C          62.8873   79.4643    9.6701 C.3     1  UNL1        0.1042
     22 C          63.6715   78.2191    9.3792 C.3     1  UNL1        0.1544
     23 O          63.4107   76.9679   10.1645 O.3     1  UNL1       -0.3805
     24 H          63.6658   77.1079   11.0898 H       1  UNL1        0.2105
     25 C          63.1187   90.6375   10.9280 C.3     1  UNL1        0.1298
     26 C          63.5204   91.7930   10.0601 C.3     1  UNL1        0.0313
     27 C          62.2431   89.5526   10.3744 C.ar    1  UNL1        0.0106
     28 C          62.8596   88.3513    9.7211 C.ar    1  UNL1       -0.0007
     29 C          61.9840   87.2666    9.1676 C.ar    1  UNL1        0.0112
     30 C          60.4919   87.3830    9.2673 C.ar    1  UNL1        0.0585
     31 CL         59.6163   86.2981    8.7137 Cl      1  UNL1       -0.0822
     32 C          59.8753   88.5842    9.9206 C.ar    1  UNL1        0.0225
     33 C          60.7509   89.6690   10.4742 C.ar    1  UNL1        0.0563
     34 CL         60.1344   90.8704   11.1275 Cl      1  UNL1       -0.0825
@<TRIPOS>BOND
     1     1     2    1
     2     2     3   ar
     3     3     4   ar
     4     4    25    1
     5    25    26    1
     6    25    27    1
     7    27    28   ar
     8    28    29   ar
     9    29    30   ar
    10    30    31    1
    11    30    32   ar
    12    32    33   ar
    13    33    34    1
    14     4     5   ar
    15     5     6   ar
    16     6     7   ar
    17     7    11    1
    18    11    12    1
    19    12    13    1
    20    15    13    1
    21    15    16    1
    22    16    17    1
    23    17    18    1
    24    18    19    1
    25    19    21    1
    26    21    22    1
    27    22    23    1
    28    19    20    1
    29    13    14    1
    30     7     8   ar
    31     8     9   ar
    32     9    10   ar
    33    10     2   ar
    34    33    27   ar
    35    10     5   ar
    36    14    11    1
    37    20    15    1
    38    23    24    1
@<TRIPOS>MOLECULE
*****
 34 38 0 0 0
SMALL
GASTEIGER

@<TRIPOS>ATOM
      1 C          66.6004   92.5932   16.8444 C.3     1  UNL1        0.0557
      2 C          66.5464   92.4197   15.3554 C.ar    1  UNL1        0.0995
      3 N          67.6020   92.8470   14.3792 N.ar    1  UNL1       -0.1705
      4 N          67.1352   92.4799   13.0017 N.ar    1  UNL1       -0.2308
      5 C          65.7912   91.8257   13.1267 C.ar    1  UNL1        0.1800
      6 N          64.8517   91.2590   12.1038 N.ar    1  UNL1       -0.2090
      7 C          63.5484   90.6552   12.5357 C.ar    1  UNL1        0.1527
      8 C          63.1844   90.6180   13.9904 C.ar    1  UNL1        0.1332
      9 N          64.1239   91.1847   15.0132 N.ar    1  UNL1       -0.2366
     10 C          65.4272   91.7885   14.5814 C.ar    1  UNL1        0.1319
     11 N          62.6088   90.0885   11.5128 N.pl3   1  UNL1       -0.2919
     12 C          62.7712   89.3884   10.1961 C.3     1  UNL1        0.0939
     13 C          61.2802   89.2871   10.0662 C.3     1  UNL1        0.0409
     14 C          61.1179   89.9872   11.3828 C.3     1  UNL1        0.0939
     15 C          60.3408   88.7204    9.0433 C.3     1  UNL1        0.0193
     16 C          59.8838   87.2959    9.1524 C.3     1  UNL1        0.0029
     17 C          58.9443   86.7292    8.1294 C.3     1  UNL1        0.0174
     18 C          58.4619   87.5871    6.9975 C.3     1  UNL1        0.0722
     19 N          58.9188   89.0116    6.8885 N.3     1  UNL1       -0.2706
     20 C          59.8582   89.5783    7.9114 C.3     1  UNL1        0.0722
     21 C          58.4363   89.8695    5.7566 C.3     1  UNL1        0.1042
     22 C          59.2383   91.0610    5.3238 C.3     1  UNL1        0.1544
     23 O          58.5475   92.3517    4.9975 O.3     1  UNL1       -0.3805
     24 H          57.9953   92.2326    4.2090 H       1  UNL1        0.2105
     25 C          67.8815   92.7240   11.7236 C.3     1  UNL1        0.1298
     26 C          69.1196   91.9353   11.4156 C.3     1  UNL1        0.0313
     27 C          67.3896   93.7570   10.7535 C.ar    1  UNL1        0.0106
     28 C          66.5595   94.9078   11.2400 C.ar    1  UNL1       -0.0007
     29 C          66.0677   95.9407   10.2699 C.ar    1  UNL1        0.0112
     30 C          66.4059   95.8229    8.8133 C.ar    1  UNL1        0.0585
     31 CL         65.9140   96.8558    7.8432 Cl      1  UNL1       -0.0822
     32 C          67.2360   94.6721    8.3268 C.ar    1  UNL1        0.0225
     33 C          67.7278   93.6392    9.2969 C.ar    1  UNL1        0.0563
     34 CL         68.5579   92.4884    8.8104 Cl      1  UNL1       -0.0825
@<TRIPOS>BOND
     1     1     2    1
     2     2     3   ar
     3     3     4   ar
     4     4    25    1
     5    25    26    1
     6    25    27    1
     7    27    28   ar
     8    28    29   ar
     9    29    30   ar
    10    30    31    1
    11    30    32   ar
    12    32    33   ar
    13    33    34    1
    14     4     5   ar
    15     5     6   ar
    16     6     7   ar
    17     7    11    1
    18    11    12    1
    19    12    13    1
    20    15    13    1
    21    15    16    1
    22    16    17    1
    23    17    18    1
    24    18    19    1
    25    19    21    1
    26    21    22    1
    27    22    23    1
    28    19    20    1
    29    13    14    1
    30     7     8   ar
    31     8     9   ar
    32     9    10   ar
    33    10     2   ar
    34    33    27   ar
    35    10     5   ar
    36    14    11    1
    37    20    15    1
    38    23    24    1
@<TRIPOS>MOLECULE
*****
 34 38 0 0 0
SMALL
GASTEIGER

@<TRIPOS>ATOM
      1 C          62.8410   92.2785    9.9530 C.3     1  UNL1        0.0557
      2 C          63.2141   91.3193   11.0443 C.ar    1  UNL1        0.0995
      3 N          63.8768   91.6749   12.3421 N.ar    1  UNL1       -0.1705
      4 N          64.0623   90.4115   13.1292 N.ar    1  UNL1       -0.2308
      5 C          63.5142   89.2752   12.3178 C.ar    1  UNL1        0.1800
      6 N          63.4247   87.8020   12.5859 N.ar    1  UNL1       -0.2090
      7 C          62.8111   86.8900   11.5653 C.ar    1  UNL1        0.1527
      8 C          62.2868   87.4511   10.2768 C.ar    1  UNL1        0.1332
      9 N          62.3763   88.9242   10.0087 N.ar    1  UNL1       -0.2366
     10 C          62.9900   89.8362   11.0293 C.ar    1  UNL1        0.1319
     11 N          62.7216   85.4168   11.8333 N.pl3   1  UNL1       -0.2919
     12 C          62.4899   84.1976   10.9907 C.3     1  UNL1        0.0939
     13 C          62.5950   83.3334   12.2123 C.3     1  UNL1        0.0409
     14 C          62.8267   84.5526   13.0549 C.3     1  UNL1        0.0939
     15 C          62.5055   81.8603   12.4802 C.3     1  UNL1        0.0193
     16 C          62.2457   81.3656   13.8722 C.3     1  UNL1        0.0029
     17 C          62.1562   79.8924   14.1401 C.3     1  UNL1        0.0174
     18 C          62.3265   78.9140   13.0161 C.3     1  UNL1        0.0722
     19 N          62.5864   79.4087   11.6240 N.3     1  UNL1       -0.2706
     20 C          62.6759   80.8818   11.3561 C.3     1  UNL1        0.0722
     21 C          62.7567   78.4302   10.4999 C.3     1  UNL1        0.1042
     22 C          63.2824   77.0530   10.7775 C.3     1  UNL1        0.1544
     23 O          62.6927   75.8686   10.0709 O.3     1  UNL1       -0.3805
     24 H          61.7717   75.7504   10.3515 H       1  UNL1        0.2105
     25 C          64.6863   90.3034   14.4890 C.3     1  UNL1        0.1298
     26 C          64.1700   89.2963   15.4732 C.3     1  UNL1        0.0313
     27 C          65.8268   91.2026   14.8644 C.ar    1  UNL1        0.0106
     28 C          67.1129   91.1440   14.0947 C.ar    1  UNL1       -0.0007
     29 C          68.2533   92.0432   14.4702 C.ar    1  UNL1        0.0112
     30 C          68.1076   93.0009   15.6154 C.ar    1  UNL1        0.0585
     31 CL         69.2480   93.9000   15.9908 Cl      1  UNL1       -0.0822
     32 C          66.8215   93.0595   16.3851 C.ar    1  UNL1        0.0225
     33 C          65.6811   92.1604   16.0096 C.ar    1  UNL1        0.0563
     34 CL         64.3949   92.2189   16.7793 Cl      1  UNL1       -0.0825
@<TRIPOS>BOND
     1     1     2    1
     2     2     3   ar
     3     3     4   ar
     4     4    25    1
     5    25    26    1
     6    25    27    1
     7    27    28   ar
     8    28    29   ar
     9    29    30   ar
    10    30    31    1
    11    30    32   ar
    12    32    33   ar
    13    33    34    1
    14     4     5   ar
    15     5     6   ar
    16     6     7   ar
    17     7    11    1
    18    11    12    1
    19    12    13    1
    20    15    13    1
    21    15    16    1
    22    16    17    1
    23    17    18    1
    24    18    19    1
    25    19    21    1
    26    21    22    1
    27    22    23    1
    28    19    20    1
    29    13    14    1
    30     7     8   ar
    31     8     9   ar
    32     9    10   ar
    33    10     2   ar
    34    33    27   ar
    35    10     5   ar
    36    14    11    1
    37    20    15    1
    38    23    24    1
@<TRIPOS>MOLECULE
*****
 34 38 0 0 0
SMALL
GASTEIGER

@<TRIPOS>ATOM
      1 C          58.1019   86.8058    7.4638 C.3     1  UNL1        0.0557
      2 C          59.4929   86.7273    8.0197 C.ar    1  UNL1        0.0995
      3 N          60.4105   85.5438    7.9353 N.ar    1  UNL1       -0.1705
      4 N          61.6952   85.9036    8.6209 N.ar    1  UNL1       -0.2308
      5 C          61.5715   87.3095    9.1291 C.ar    1  UNL1        0.1800
      6 N          62.5224   88.1918    9.8822 N.ar    1  UNL1       -0.2090
      7 C          62.1122   89.5832   10.2636 C.ar    1  UNL1        0.1527
      8 C          60.7511   90.0923    9.8920 C.ar    1  UNL1        0.1332
      9 N          59.8001   89.2100    9.1390 N.ar    1  UNL1       -0.2366
     10 C          60.2104   87.8185    8.7575 C.ar    1  UNL1        0.1319
     11 N          63.0632   90.4657   11.0167 N.pl3   1  UNL1       -0.2919
     12 C          63.5640   90.5232   12.4295 C.3     1  UNL1        0.0939
     13 C          64.4079   91.7135   12.0818 C.3     1  UNL1        0.0409
     14 C          63.9071   91.6560   10.6691 C.3     1  UNL1        0.0939
     15 C          65.3588   92.5959   12.8349 C.3     1  UNL1        0.0193
     16 C          65.8047   93.8985   12.2396 C.3     1  UNL1        0.0029
     17 C          66.7556   94.7809   12.9928 C.3     1  UNL1        0.0174
     18 C          67.2606   94.3606   14.3412 C.3     1  UNL1        0.0722
     19 N          66.8148   93.0580   14.9366 N.3     1  UNL1       -0.2706
     20 C          65.8639   92.1756   14.1834 C.3     1  UNL1        0.0722
     21 C          67.3198   92.6377   16.2850 C.3     1  UNL1        0.1042
     22 C          68.7620   92.2659   16.4633 C.3     1  UNL1        0.1544
     23 O          69.6330   92.0427   15.2626 O.3     1  UNL1       -0.3805
     24 H          69.3225   91.2614   14.7788 H       1  UNL1        0.2105
     25 C          62.8933   85.0137    8.7719 C.3     1  UNL1        0.1298
     26 C          63.8319   84.8174    7.6185 C.3     1  UNL1        0.0313
     27 C          63.1528   84.3202   10.0765 C.ar    1  UNL1        0.0106
     28 C          64.1734   83.2235   10.1529 C.ar    1  UNL1       -0.0007
     29 C          64.4328   82.5301   11.4574 C.ar    1  UNL1        0.0112
     30 C          63.6718   82.9333   12.6855 C.ar    1  UNL1        0.0585
     31 CL         63.9313   82.2398   13.9900 Cl      1  UNL1       -0.0822
     32 C          62.6512   84.0300   12.6091 C.ar    1  UNL1        0.0225
     33 C          62.3918   84.7234   11.3046 C.ar    1  UNL1        0.0563
     34 CL         61.3713   85.8201   11.2282 Cl      1  UNL1       -0.0825
@<TRIPOS>BOND
     1     1     2    1
     2     2     3   ar
     3     3     4   ar
     4     4    25    1
     5    25    26    1
     6    25    27    1
     7    27    28   ar
     8    28    29   ar
     9    29    30   ar
    10    30    31    1
    11    30    32   ar
    12    32    33   ar
    13    33    34    1
    14     4     5   ar
    15     5     6   ar
    16     6     7   ar
    17     7    11    1
    18    11    12    1
    19    12    13    1
    20    15    13    1
    21    15    16    1
    22    16    17    1
    23    17    18    1
    24    18    19    1
    25    19    21    1
    26    21    22    1
    27    22    23    1
    28    19    20    1
    29    13    14    1
    30     7     8   ar
    31     8     9   ar
    32     9    10   ar
    33    10     2   ar
    34    33    27   ar
    35    10     5   ar
    36    14    11    1
    37    20    15    1
    38    23    24    1
@<TRIPOS>MOLECULE
*****
 34 38 0 0 0
SMALL
GASTEIGER

@<TRIPOS>ATOM
      1 C          63.0535   92.0302    9.7010 C.3     1  UNL1        0.0557
      2 C          63.3317   91.1858   10.9091 C.ar    1  UNL1        0.0995
      3 N          63.9132   91.6662   12.2056 N.ar    1  UNL1       -0.1705
      4 N          64.0181   90.4901   13.1306 N.ar    1  UNL1       -0.2308
      5 C          63.5014   89.2827   12.4058 C.ar    1  UNL1        0.1800
      6 N          63.3625   87.8474   12.8185 N.ar    1  UNL1       -0.2090
      7 C          62.7992   86.8421   11.8583 C.ar    1  UNL1        0.1527
      8 C          62.3750   87.2721   10.4854 C.ar    1  UNL1        0.1332
      9 N          62.5140   88.7074   10.0726 N.ar    1  UNL1       -0.2366
     10 C          63.0772   89.7127   11.0328 C.ar    1  UNL1        0.1319
     11 N          62.6602   85.4066   12.2711 N.pl3   1  UNL1       -0.2919
     12 C          62.6646   84.6743   13.5802 C.3     1  UNL1        0.0939
     13 C          62.4636   83.3767   12.8549 C.3     1  UNL1        0.0409
     14 C          62.4593   84.1091   11.5459 C.3     1  UNL1        0.0939
     15 C          62.3246   81.9414   13.2677 C.3     1  UNL1        0.0193
     16 C          63.5415   81.0710   13.3764 C.3     1  UNL1        0.0029
     17 C          63.4024   79.6356   13.7892 C.3     1  UNL1        0.0174
     18 C          62.0466   79.0707   14.0933 C.3     1  UNL1        0.0722
     19 N          60.8298   79.9410   13.9846 N.3     1  UNL1       -0.2706
     20 C          60.9688   81.3764   13.5718 C.3     1  UNL1        0.0722
     21 C          59.4739   79.3761   14.2887 C.3     1  UNL1        0.1042
     22 C          58.3615   80.2858   14.7187 C.3     1  UNL1        0.1544
     23 O          57.5759   79.9759   15.9583 O.3     1  UNL1       -0.3805
     24 H          57.0737   79.1566   15.8264 H       1  UNL1        0.2105
     25 C          64.5469   90.5165   14.5341 C.3     1  UNL1        0.1298
     26 C          63.8703   89.7144   15.6058 C.3     1  UNL1        0.0313
     27 C          65.7524   91.3453   14.8659 C.ar    1  UNL1        0.0106
     28 C          66.9806   91.2593   14.0090 C.ar    1  UNL1       -0.0007
     29 C          68.1860   92.0880   14.3408 C.ar    1  UNL1        0.0112
     30 C          68.1634   93.0026   15.5295 C.ar    1  UNL1        0.0585
     31 CL         69.3688   93.8313   15.8612 Cl      1  UNL1       -0.0822
     32 C          66.9352   93.0886   16.3863 C.ar    1  UNL1        0.0225
     33 C          65.7298   92.2599   16.0545 C.ar    1  UNL1        0.0563
     34 CL         64.5015   92.3458   16.9114 Cl      1  UNL1       -0.0825
@<TRIPOS>BOND
     1     1     2    1
     2     2     3   ar
     3     3     4   ar
     4     4    25    1
     5    25    26    1
     6    25    27    1
     7    27    28   ar
     8    28    29   ar
     9    29    30   ar
    10    30    31    1
    11    30    32   ar
    12    32    33   ar
    13    33    34    1
    14     4     5   ar
    15     5     6   ar
    16     6     7   ar
    17     7    11    1
    18    11    12    1
    19    12    13    1
    20    15    13    1
    21    15    16    1
    22    16    17    1
    23    17    18    1
    24    18    19    1
    25    19    21    1
    26    21    22    1
    27    22    23    1
    28    19    20    1
    29    13    14    1
    30     7     8   ar
    31     8     9   ar
    32     9    10   ar
    33    10     2   ar
    34    33    27   ar
    35    10     5   ar
    36    14    11    1
    37    20    15    1
    38    23    24    1
@<TRIPOS>MOLECULE
*****
 34 38 0 0 0
SMALL
GASTEIGER

@<TRIPOS>ATOM
      1 C          62.7902   92.1299    9.6837 C.3     1  UNL1        0.0557
      2 C          63.1731   91.1708   10.7716 C.ar    1  UNL1        0.0995
      3 N          63.8514   91.5258   12.0615 N.ar    1  UNL1       -0.1705
      4 N          64.0424   90.2627   12.8477 N.ar    1  UNL1       -0.2308
      5 C          63.4820   89.1271   12.0437 C.ar    1  UNL1        0.1800
      6 N          63.3915   87.6545   12.3143 N.ar    1  UNL1       -0.2090
      7 C          62.7638   86.7431   11.3017 C.ar    1  UNL1        0.1527
      8 C          62.2265   87.3044   10.0186 C.ar    1  UNL1        0.1332
      9 N          62.3170   88.7770    9.7481 N.ar    1  UNL1       -0.2366
     10 C          62.9447   89.6883   10.7606 C.ar    1  UNL1        0.1319
     11 N          62.6733   85.2705   11.5723 N.pl3   1  UNL1       -0.2919
     12 C          62.4062   84.0532   10.7374 C.3     1  UNL1        0.0939
     13 C          62.5453   83.1878   11.9547 C.3     1  UNL1        0.0409
     14 C          62.8124   84.4051   12.7896 C.3     1  UNL1        0.0939
     15 C          62.4548   81.7152   12.2252 C.3     1  UNL1        0.0193
     16 C          62.1526   81.2242   13.6099 C.3     1  UNL1        0.0029
     17 C          62.0621   79.7515   13.8804 C.3     1  UNL1        0.0174
     18 C          62.2738   78.7699   12.7661 C.3     1  UNL1        0.0722
     19 N          62.5760   79.2610   11.3813 N.3     1  UNL1       -0.2706
     20 C          62.6665   80.7336   11.1109 C.3     1  UNL1        0.0722
     21 C          62.7877   78.2794   10.2670 C.3     1  UNL1        0.1042
     22 C          63.3525   76.9212   10.5611 C.3     1  UNL1        0.1544
     23 O          62.5841   75.6908   10.1797 O.3     1  UNL1       -0.3805
     24 H          61.7684   75.6440   10.7024 H       1  UNL1        0.2105
     25 C          64.6815   90.1543   14.2004 C.3     1  UNL1        0.1298
     26 C          65.8341   91.0446   14.5589 C.3     1  UNL1        0.0313
     27 C          64.1678   89.1554   15.1947 C.ar    1  UNL1        0.0106
     28 C          64.3691   87.6882   14.9561 C.ar    1  UNL1       -0.0007
     29 C          63.8555   86.6894   15.9504 C.ar    1  UNL1        0.0112
     30 C          63.1407   87.1577   17.1831 C.ar    1  UNL1        0.0585
     31 CL         62.6271   86.1588   18.1773 Cl      1  UNL1       -0.0822
     32 C          62.9394   88.6249   17.4217 C.ar    1  UNL1        0.0225
     33 C          63.4530   89.6237   16.4274 C.ar    1  UNL1        0.0563
     34 CL         63.2518   91.0909   16.6659 Cl      1  UNL1       -0.0825
@<TRIPOS>BOND
     1     1     2    1
     2     2     3   ar
     3     3     4   ar
     4     4    25    1
     5    25    26    1
     6    25    27    1
     7    27    28   ar
     8    28    29   ar
     9    29    30   ar
    10    30    31    1
    11    30    32   ar
    12    32    33   ar
    13    33    34    1
    14     4     5   ar
    15     5     6   ar
    16     6     7   ar
    17     7    11    1
    18    11    12    1
    19    12    13    1
    20    15    13    1
    21    15    16    1
    22    16    17    1
    23    17    18    1
    24    18    19    1
    25    19    21    1
    26    21    22    1
    27    22    23    1
    28    19    20    1
    29    13    14    1
    30     7     8   ar
    31     8     9   ar
    32     9    10   ar
    33    10     2   ar
    34    33    27   ar
    35    10     5   ar
    36    14    11    1
    37    20    15    1
    38    23    24    1
