@<TRIPOS>MOLECULE
*****
 29 32 0 0 0
SMALL
GASTEIGER

@<TRIPOS>ATOM
      1 O          63.5136   91.4508   16.2935 O.2     1  UNL1       -0.2707
      2 C          63.4196   90.0197   15.8543 C.2     1  UNL1        0.2707
      3 N          63.9379   89.6131   14.5067 N.am    1  UNL1       -0.2809
      4 H          63.8762   88.6737   14.2185 H       1  UNL1        0.1550
      5 C          64.5502   90.6377   13.5983 C.ar    1  UNL1        0.0504
      6 C          65.8165   91.3345   13.9994 C.ar    1  UNL1        0.0147
      7 C          66.4288   92.3591   13.0910 C.ar    1  UNL1        0.0013
      8 C          65.7749   92.6869   11.7815 C.ar    1  UNL1        0.0001
      9 C          64.5086   91.9901   11.3804 C.ar    1  UNL1        0.0013
     10 C          63.8962   90.9654   12.2888 C.ar    1  UNL1        0.0147
     11 C          66.3872   93.7115   10.8731 C.ar    1  UNL1        0.0000
     12 C          66.0896   95.1676   11.0764 C.ar    1  UNL1        0.0000
     13 C          66.7019   96.1922   10.1680 C.ar    1  UNL1        0.0000
     14 C          67.6118   95.7608    9.0562 C.ar    1  UNL1        0.0000
     15 C          67.9093   94.3047    8.8529 C.ar    1  UNL1        0.0000
     16 C          67.2970   93.2801    9.7613 C.ar    1  UNL1        0.0000
     17 C          62.8073   88.9950   16.7628 C.3     1  UNL1        0.2897
     18 O          63.5772   87.7606   17.1279 O.3     1  UNL1       -0.4656
     19 C          63.4350   86.5164   16.3021 C.ar    1  UNL1        0.1393
     20 C          64.3416   86.2868   15.1294 C.ar    1  UNL1        0.0370
     21 C          64.1994   85.0427   14.3037 C.ar    1  UNL1        0.0062
     22 C          63.1506   84.0280   14.6508 C.ar    1  UNL1        0.0364
     23 C          62.2439   84.2576   15.8235 C.ar    1  UNL1        0.0062
     24 C          62.3862   85.5017   16.6492 C.ar    1  UNL1        0.0370
     25 C          63.0084   82.7838   13.8251 C.ar    1  UNL1        0.1664
     26 C          62.9657   82.7199   12.3270 C.ar    1  UNL1        0.1396
     27 N          62.8149   81.2817   11.9285 N.ar    1  UNL1       -0.2026
     28 C          62.7643   80.4568   13.1803 C.ar    1  UNL1        0.2851
     29 O          62.8839   81.3851   14.3524 O.2     1  UNL1       -0.4311
@<TRIPOS>BOND
     1     1     2    2
     2     2    17    1
     3    17    18    1
     4    18    19    1
     5    19    20   ar
     6    20    21   ar
     7    21    22   ar
     8    22    25    1
     9    25    26   ar
    10    26    27   ar
    11    27    28   ar
    12    28    29   ar
    13    22    23   ar
    14    23    24   ar
    15     2     3   am
    16     3     5    1
    17     5     6   ar
    18     6     7   ar
    19     7     8   ar
    20     8    11    1
    21    11    12   ar
    22    12    13   ar
    23    13    14   ar
    24    14    15   ar
    25    15    16   ar
    26     8     9   ar
    27     9    10   ar
    28    24    19   ar
    29    10     5   ar
    30    29    25   ar
    31    16    11   ar
    32     3     4    1
@<TRIPOS>MOLECULE
*****
 29 32 0 0 0
SMALL
GASTEIGER

@<TRIPOS>ATOM
      1 O          62.4255   89.1128   15.9865 O.2     1  UNL1       -0.2707
      2 C          63.6705   89.6785   15.3702 C.2     1  UNL1        0.2707
      3 N          64.5304   88.8183   14.4924 N.am    1  UNL1       -0.2809
      4 H          65.3476   89.1896   14.0879 H       1  UNL1        0.1550
      5 C          64.1452   87.3924   14.2308 C.ar    1  UNL1        0.0504
      6 C          63.4025   87.0339   12.9779 C.ar    1  UNL1        0.0147
      7 C          63.0173   85.6080   12.7163 C.ar    1  UNL1        0.0013
      8 C          63.3748   84.5406   13.7077 C.ar    1  UNL1        0.0001
      9 C          64.1176   84.8991   14.9606 C.ar    1  UNL1        0.0013
     10 C          64.5028   86.3250   15.2222 C.ar    1  UNL1        0.0147
     11 C          62.9897   83.1147   13.4462 C.ar    1  UNL1        0.0000
     12 C          63.4321   82.4379   12.1827 C.ar    1  UNL1        0.0000
     13 C          63.0469   81.0121   11.9212 C.ar    1  UNL1        0.0000
     14 C          62.2193   80.2629   12.9231 C.ar    1  UNL1        0.0000
     15 C          61.7769   80.9396   14.1865 C.ar    1  UNL1        0.0000
     16 C          62.1620   82.3655   14.4481 C.ar    1  UNL1        0.0000
     17 C          64.0557   91.1045   15.6318 C.3     1  UNL1        0.2897
     18 O          65.4347   91.5841   15.2878 O.3     1  UNL1       -0.4656
     19 C          65.6609   92.3834   14.0388 C.ar    1  UNL1        0.1393
     20 C          65.1356   91.8863   12.7247 C.ar    1  UNL1        0.0370
     21 C          65.3619   92.6856   11.4758 C.ar    1  UNL1        0.0062
     22 C          66.1135   93.9821   11.5410 C.ar    1  UNL1        0.0364
     23 C          66.6389   94.4792   12.8550 C.ar    1  UNL1        0.0062
     24 C          66.4126   93.6798   14.1039 C.ar    1  UNL1        0.0370
     25 C          66.3398   94.7814   10.2920 C.ar    1  UNL1        0.1664
     26 C          67.3355   94.4699    9.2141 C.ar    1  UNL1        0.1396
     27 N          67.2212   95.5285    8.1575 N.ar    1  UNL1       -0.2026
     28 C          66.1549   96.4942    8.5824 C.ar    1  UNL1        0.2851
     29 O          65.6102   96.0325    9.9015 O.2     1  UNL1       -0.4311
@<TRIPOS>BOND
     1     1     2    2
     2     2    17    1
     3    17    18    1
     4    18    19    1
     5    19    20   ar
     6    20    21   ar
     7    21    22   ar
     8    22    25    1
     9    25    26   ar
    10    26    27   ar
    11    27    28   ar
    12    28    29   ar
    13    22    23   ar
    14    23    24   ar
    15     2     3   am
    16     3     5    1
    17     5     6   ar
    18     6     7   ar
    19     7     8   ar
    20     8    11    1
    21    11    12   ar
    22    12    13   ar
    23    13    14   ar
    24    14    15   ar
    25    15    16   ar
    26     8     9   ar
    27     9    10   ar
    28    24    19   ar
    29    10     5   ar
    30    29    25   ar
    31    16    11   ar
    32     3     4    1
@<TRIPOS>MOLECULE
*****
 29 32 0 0 0
SMALL
GASTEIGER

@<TRIPOS>ATOM
      1 O          60.4247   90.3653   11.7984 O.2     1  UNL1       -0.2707
      2 C          60.8222   90.1958   10.3620 C.2     1  UNL1        0.2707
      3 N          62.2467   90.4163    9.9470 N.am    1  UNL1       -0.2809
      4 H          62.5076   90.3051    9.0043 H       1  UNL1        0.1550
      5 C          63.2736   90.8061   10.9685 C.ar    1  UNL1        0.0504
      6 C          63.3274   90.0940   12.2876 C.ar    1  UNL1        0.0147
      7 C          64.3543   90.4838   13.3090 C.ar    1  UNL1        0.0013
      8 C          65.3275   91.5858   13.0115 C.ar    1  UNL1        0.0001
      9 C          65.2738   92.2979   11.6924 C.ar    1  UNL1        0.0013
     10 C          64.2468   91.9081   10.6709 C.ar    1  UNL1        0.0147
     11 C          66.3545   91.9756   14.0329 C.ar    1  UNL1        0.0000
     12 C          67.8114   91.9575   13.6764 C.ar    1  UNL1        0.0000
     13 C          68.8384   92.3473   14.6979 C.ar    1  UNL1        0.0000
     14 C          68.4084   92.7553   16.0758 C.ar    1  UNL1        0.0000
     15 C          66.9515   92.7734   16.4323 C.ar    1  UNL1        0.0000
     16 C          65.9245   92.3835   15.4108 C.ar    1  UNL1        0.0000
     17 C          59.7952   89.8060    9.3405 C.3     1  UNL1        0.2897
     18 O          59.8655   88.4600    8.6822 O.3     1  UNL1       -0.4656
     19 C          60.7145   87.3768    9.2786 C.ar    1  UNL1        0.1393
     20 C          60.6162   87.0675   10.7431 C.ar    1  UNL1        0.0370
     21 C          61.4652   85.9842   11.3394 C.ar    1  UNL1        0.0062
     22 C          62.4126   85.2103   10.4714 C.ar    1  UNL1        0.0364
     23 C          62.5110   85.5196    9.0069 C.ar    1  UNL1        0.0062
     24 C          61.6619   86.6028    8.4106 C.ar    1  UNL1        0.0370
     25 C          63.2617   84.1270   11.0678 C.ar    1  UNL1        0.1664
     26 C          64.0857   83.1322   10.3053 C.ar    1  UNL1        0.1396
     27 N          64.7691   82.2388   11.2977 N.ar    1  UNL1       -0.2026
     28 C          64.3674   82.6814   12.6735 C.ar    1  UNL1        0.2851
     29 O          63.4358   83.8484   12.5314 O.2     1  UNL1       -0.4311
@<TRIPOS>BOND
     1     1     2    2
     2     2    17    1
     3    17    18    1
     4    18    19    1
     5    19    20   ar
     6    20    21   ar
     7    21    22   ar
     8    22    25    1
     9    25    26   ar
    10    26    27   ar
    11    27    28   ar
    12    28    29   ar
    13    22    23   ar
    14    23    24   ar
    15     2     3   am
    16     3     5    1
    17     5     6   ar
    18     6     7   ar
    19     7     8   ar
    20     8    11    1
    21    11    12   ar
    22    12    13   ar
    23    13    14   ar
    24    14    15   ar
    25    15    16   ar
    26     8     9   ar
    27     9    10   ar
    28    24    19   ar
    29    10     5   ar
    30    29    25   ar
    31    16    11   ar
    32     3     4    1
@<TRIPOS>MOLECULE
*****
 29 32 0 0 0
SMALL
GASTEIGER

@<TRIPOS>ATOM
      1 O          62.7159   87.7724   16.5632 O.2     1  UNL1       -0.2707
      2 C          63.5583   88.7079   15.7476 C.2     1  UNL1        0.2707
      3 N          64.1630   88.2408   14.4569 N.am    1  UNL1       -0.2809
      4 H          64.7159   88.8548   13.9216 H       1  UNL1        0.1550
      5 C          63.9254   86.8380   13.9818 C.ar    1  UNL1        0.0504
      6 C          63.1479   86.5943   12.7223 C.ar    1  UNL1        0.0147
      7 C          62.9103   85.1915   12.2472 C.ar    1  UNL1        0.0013
      8 C          63.4502   84.0325   13.0314 C.ar    1  UNL1        0.0001
      9 C          64.2277   84.2761   14.2908 C.ar    1  UNL1        0.0013
     10 C          64.4653   85.6789   14.7660 C.ar    1  UNL1        0.0147
     11 C          63.2126   82.6297   12.5563 C.ar    1  UNL1        0.0000
     12 C          62.6910   81.5938   13.5076 C.ar    1  UNL1        0.0000
     13 C          62.4534   80.1911   13.0325 C.ar    1  UNL1        0.0000
     14 C          62.7374   79.8241   11.6060 C.ar    1  UNL1        0.0000
     15 C          63.2589   80.8600   10.6547 C.ar    1  UNL1        0.0000
     16 C          63.4965   82.2628   11.1298 C.ar    1  UNL1        0.0000
     17 C          63.7959   90.1107   16.2228 C.3     1  UNL1        0.2897
     18 O          63.4646   91.2708   15.3315 O.3     1  UNL1       -0.4656
     19 C          64.3717   91.6222   14.1895 C.ar    1  UNL1        0.1393
     20 C          65.7746   92.0791   14.4593 C.ar    1  UNL1        0.0370
     21 C          66.6816   92.4305   13.3175 C.ar    1  UNL1        0.0062
     22 C          66.1855   92.3250   11.9058 C.ar    1  UNL1        0.0364
     23 C          64.7826   91.8680   11.6360 C.ar    1  UNL1        0.0062
     24 C          63.8756   91.5166   12.7779 C.ar    1  UNL1        0.0370
     25 C          67.0926   92.6764   10.7639 C.ar    1  UNL1        0.1664
     26 C          66.8318   93.7218    9.7203 C.ar    1  UNL1        0.1396
     27 N          67.9976   93.7356    8.7765 N.ar    1  UNL1       -0.2026
     28 C          68.9789   92.6987    9.2369 C.ar    1  UNL1        0.2851
     29 O          68.4196   92.0441   10.4651 O.2     1  UNL1       -0.4311
@<TRIPOS>BOND
     1     1     2    2
     2     2    17    1
     3    17    18    1
     4    18    19    1
     5    19    20   ar
     6    20    21   ar
     7    21    22   ar
     8    22    25    1
     9    25    26   ar
    10    26    27   ar
    11    27    28   ar
    12    28    29   ar
    13    22    23   ar
    14    23    24   ar
    15     2     3   am
    16     3     5    1
    17     5     6   ar
    18     6     7   ar
    19     7     8   ar
    20     8    11    1
    21    11    12   ar
    22    12    13   ar
    23    13    14   ar
    24    14    15   ar
    25    15    16   ar
    26     8     9   ar
    27     9    10   ar
    28    24    19   ar
    29    10     5   ar
    30    29    25   ar
    31    16    11   ar
    32     3     4    1
@<TRIPOS>MOLECULE
*****
 29 32 0 0 0
SMALL
GASTEIGER

@<TRIPOS>ATOM
      1 O          63.3653   88.7223   14.1458 O.2     1  UNL1       -0.2707
      2 C          63.5827   89.3331   15.4985 C.2     1  UNL1        0.2707
      3 N          64.4148   90.5734   15.6364 N.am    1  UNL1       -0.2809
      4 H          64.5575   90.9743   16.5241 H       1  UNL1        0.1550
      5 C          65.0296   91.2029   14.4216 C.ar    1  UNL1        0.0504
      6 C          64.2057   91.4082   13.1849 C.ar    1  UNL1        0.0147
      7 C          64.8205   92.0378   11.9702 C.ar    1  UNL1        0.0013
      8 C          66.2591   92.4621   11.9920 C.ar    1  UNL1        0.0001
      9 C          67.0829   92.2568   13.2285 C.ar    1  UNL1        0.0013
     10 C          66.4682   91.6272   14.4434 C.ar    1  UNL1        0.0147
     11 C          66.8738   93.0916   10.7772 C.ar    1  UNL1        0.0000
     12 C          67.8442   92.3133    9.9388 C.ar    1  UNL1        0.0000
     13 C          68.4589   92.9429    8.7240 C.ar    1  UNL1        0.0000
     14 C          68.1034   94.3507    8.3476 C.ar    1  UNL1        0.0000
     15 C          67.1331   95.1289    9.1859 C.ar    1  UNL1        0.0000
     16 C          66.5183   94.4994   10.4007 C.ar    1  UNL1        0.0000
     17 C          62.9679   88.7035   16.7133 C.3     1  UNL1        0.2897
     18 O          63.4353   87.3560   17.1776 O.3     1  UNL1       -0.4656
     19 C          63.3468   86.1737   16.2585 C.ar    1  UNL1        0.1393
     20 C          62.1201   85.3105   16.2630 C.ar    1  UNL1        0.0370
     21 C          62.0316   84.1283   15.3440 C.ar    1  UNL1        0.0062
     22 C          63.1698   83.8094   14.4206 C.ar    1  UNL1        0.0364
     23 C          64.3965   84.6725   14.4161 C.ar    1  UNL1        0.0062
     24 C          64.4850   85.8547   15.3351 C.ar    1  UNL1        0.0370
     25 C          63.0812   82.6271   13.5015 C.ar    1  UNL1        0.1664
     26 C          62.8946   81.1983   13.9185 C.ar    1  UNL1        0.1396
     27 N          62.8618   80.3543   12.6789 N.ar    1  UNL1       -0.2026
     28 C          63.0282   81.2614   11.4959 C.ar    1  UNL1        0.2851
     29 O          63.1638   82.6661   12.0043 O.2     1  UNL1       -0.4311
@<TRIPOS>BOND
     1     1     2    2
     2     2    17    1
     3    17    18    1
     4    18    19    1
     5    19    20   ar
     6    20    21   ar
     7    21    22   ar
     8    22    25    1
     9    25    26   ar
    10    26    27   ar
    11    27    28   ar
    12    28    29   ar
    13    22    23   ar
    14    23    24   ar
    15     2     3   am
    16     3     5    1
    17     5     6   ar
    18     6     7   ar
    19     7     8   ar
    20     8    11    1
    21    11    12   ar
    22    12    13   ar
    23    13    14   ar
    24    14    15   ar
    25    15    16   ar
    26     8     9   ar
    27     9    10   ar
    28    24    19   ar
    29    10     5   ar
    30    29    25   ar
    31    16    11   ar
    32     3     4    1
@<TRIPOS>MOLECULE
*****
 29 32 0 0 0
SMALL
GASTEIGER

@<TRIPOS>ATOM
      1 O          62.8089   89.4210   14.2870 O.2     1  UNL1       -0.2707
      2 C          63.3673   89.5332   15.6746 C.2     1  UNL1        0.2707
      3 N          63.7210   88.2946   16.4432 N.am    1  UNL1       -0.2809
      4 H          64.0875   88.3683   17.3540 H       1  UNL1        0.1550
      5 C          63.5163   86.9438   15.8241 C.ar    1  UNL1        0.0504
      6 C          62.6434   85.9314   16.5046 C.ar    1  UNL1        0.0147
      7 C          62.4387   84.5805   15.8855 C.ar    1  UNL1        0.0013
      8 C          63.1069   84.2421   14.5859 C.ar    1  UNL1        0.0001
      9 C          63.9797   85.2545   13.9054 C.ar    1  UNL1        0.0013
     10 C          64.1845   86.6054   14.5245 C.ar    1  UNL1        0.0147
     11 C          62.9022   82.8913   13.9668 C.ar    1  UNL1        0.0000
     12 C          63.7724   82.4485   12.8280 C.ar    1  UNL1        0.0000
     13 C          63.5677   81.0977   12.2089 C.ar    1  UNL1        0.0000
     14 C          62.4928   80.1896   12.7285 C.ar    1  UNL1        0.0000
     15 C          61.6226   80.6323   13.8672 C.ar    1  UNL1        0.0000
     16 C          61.8273   81.9832   14.4864 C.ar    1  UNL1        0.0000
     17 C          63.5720   90.8842   16.2937 C.3     1  UNL1        0.2897
     18 O          64.9075   91.5599   16.1948 O.3     1  UNL1       -0.4656
     19 C          65.5173   91.8228   14.8498 C.ar    1  UNL1        0.1393
     20 C          64.6354   92.0393   13.6559 C.ar    1  UNL1        0.0370
     21 C          65.2452   92.3022   12.3109 C.ar    1  UNL1        0.0062
     22 C          66.7369   92.3486   12.1599 C.ar    1  UNL1        0.0364
     23 C          67.6187   92.1321   13.3538 C.ar    1  UNL1        0.0062
     24 C          67.0089   91.8692   14.6987 C.ar    1  UNL1        0.0370
     25 C          67.3467   92.6115   10.8148 C.ar    1  UNL1        0.1664
     26 C          67.0612   93.7905    9.9325 C.ar    1  UNL1        0.1396
     27 N          67.8870   93.6493    8.6884 N.ar    1  UNL1       -0.2026
     28 C          68.6830   92.3829    8.8017 C.ar    1  UNL1        0.2851
     29 O          68.3490   91.7415   10.1159 O.2     1  UNL1       -0.4311
@<TRIPOS>BOND
     1     1     2    2
     2     2    17    1
     3    17    18    1
     4    18    19    1
     5    19    20   ar
     6    20    21   ar
     7    21    22   ar
     8    22    25    1
     9    25    26   ar
    10    26    27   ar
    11    27    28   ar
    12    28    29   ar
    13    22    23   ar
    14    23    24   ar
    15     2     3   am
    16     3     5    1
    17     5     6   ar
    18     6     7   ar
    19     7     8   ar
    20     8    11    1
    21    11    12   ar
    22    12    13   ar
    23    13    14   ar
    24    14    15   ar
    25    15    16   ar
    26     8     9   ar
    27     9    10   ar
    28    24    19   ar
    29    10     5   ar
    30    29    25   ar
    31    16    11   ar
    32     3     4    1
@<TRIPOS>MOLECULE
*****
 29 32 0 0 0
SMALL
GASTEIGER

@<TRIPOS>ATOM
      1 O          62.6523   90.9042    9.4082 O.2     1  UNL1       -0.2707
      2 C          61.6693   90.0500   10.1526 C.2     1  UNL1        0.2707
      3 N          61.8894   89.7451   11.6047 N.am    1  UNL1       -0.2809
      4 H          61.2442   89.1844   12.0932 H       1  UNL1        0.1550
      5 C          63.0925   90.2943   12.3124 C.ar    1  UNL1        0.0504
      6 C          63.6028   89.6250   13.5540 C.ar    1  UNL1        0.0147
      7 C          64.8059   90.1742   14.2617 C.ar    1  UNL1        0.0013
      8 C          65.4987   91.3929   13.7279 C.ar    1  UNL1        0.0001
      9 C          64.9884   92.0622   12.4863 C.ar    1  UNL1        0.0013
     10 C          63.7852   91.5130   11.7785 C.ar    1  UNL1        0.0147
     11 C          66.7017   91.9421   14.4355 C.ar    1  UNL1        0.0000
     12 C          68.0475   91.8941   13.7747 C.ar    1  UNL1        0.0000
     13 C          69.2506   92.4434   14.4824 C.ar    1  UNL1        0.0000
     14 C          69.1080   93.0407   15.8509 C.ar    1  UNL1        0.0000
     15 C          67.7623   93.0887   16.5118 C.ar    1  UNL1        0.0000
     16 C          66.5591   92.5394   15.8041 C.ar    1  UNL1        0.0000
     17 C          60.4662   89.5007    9.4448 C.3     1  UNL1        0.2897
     18 O          60.5507   88.1821    8.7349 O.3     1  UNL1       -0.4656
     19 C          61.2181   87.0142    9.3989 C.ar    1  UNL1        0.1393
     20 C          62.1335   86.1255    8.6101 C.ar    1  UNL1        0.0370
     21 C          62.8008   84.9577    9.2741 C.ar    1  UNL1        0.0062
     22 C          62.5526   84.6786   10.7269 C.ar    1  UNL1        0.0364
     23 C          61.6372   85.5673   11.5157 C.ar    1  UNL1        0.0062
     24 C          60.9699   86.7351   10.8517 C.ar    1  UNL1        0.0370
     25 C          63.2199   83.5107   11.3909 C.ar    1  UNL1        0.1664
     26 C          64.6817   83.1794   11.3309 C.ar    1  UNL1        0.1396
     27 N          64.9079   81.9331   12.1343 N.ar    1  UNL1       -0.2026
     28 C          63.5859   81.4942   12.6909 C.ar    1  UNL1        0.2851
     29 O          62.5427   82.4692   12.2314 O.2     1  UNL1       -0.4311
@<TRIPOS>BOND
     1     1     2    2
     2     2    17    1
     3    17    18    1
     4    18    19    1
     5    19    20   ar
     6    20    21   ar
     7    21    22   ar
     8    22    25    1
     9    25    26   ar
    10    26    27   ar
    11    27    28   ar
    12    28    29   ar
    13    22    23   ar
    14    23    24   ar
    15     2     3   am
    16     3     5    1
    17     5     6   ar
    18     6     7   ar
    19     7     8   ar
    20     8    11    1
    21    11    12   ar
    22    12    13   ar
    23    13    14   ar
    24    14    15   ar
    25    15    16   ar
    26     8     9   ar
    27     9    10   ar
    28    24    19   ar
    29    10     5   ar
    30    29    25   ar
    31    16    11   ar
    32     3     4    1
@<TRIPOS>MOLECULE
*****
 29 32 0 0 0
SMALL
GASTEIGER

@<TRIPOS>ATOM
      1 O          64.2905   87.9984   14.4791 O.2     1  UNL1       -0.2707
      2 C          63.5783   89.3159   14.5631 C.2     1  UNL1        0.2707
      3 N          62.6718   89.7508   13.4500 N.am    1  UNL1       -0.2809
      4 H          62.2044   90.6155   13.5052 H       1  UNL1        0.1550
      5 C          62.4775   88.8683   12.2528 C.ar    1  UNL1        0.0504
      6 C          62.2179   89.4769   10.9066 C.ar    1  UNL1        0.0147
      7 C          62.0236   88.5944    9.7094 C.ar    1  UNL1        0.0013
      8 C          62.0889   87.1033    9.8583 C.ar    1  UNL1        0.0001
      9 C          62.3485   86.4946   11.2045 C.ar    1  UNL1        0.0013
     10 C          62.5429   87.3772   12.4018 C.ar    1  UNL1        0.0147
     11 C          61.8946   86.2207    8.6611 C.ar    1  UNL1        0.0000
     12 C          60.5425   86.1127    8.0205 C.ar    1  UNL1        0.0000
     13 C          60.3482   85.2302    6.8233 C.ar    1  UNL1        0.0000
     14 C          61.5059   84.4556    6.2666 C.ar    1  UNL1        0.0000
     15 C          62.8579   84.5637    6.9072 C.ar    1  UNL1        0.0000
     16 C          63.0523   85.4462    8.1045 C.ar    1  UNL1        0.0000
     17 C          63.7727   90.1984   15.7604 C.3     1  UNL1        0.2897
     18 O          64.7974   91.2933   15.7267 O.3     1  UNL1       -0.4656
     19 C          65.4524   91.6679   14.4302 C.ar    1  UNL1        0.1393
     20 C          64.6112   92.0058   13.2352 C.ar    1  UNL1        0.0370
     21 C          65.2662   92.3804   11.9388 C.ar    1  UNL1        0.0062
     22 C          66.7624   92.4170   11.8375 C.ar    1  UNL1        0.0364
     23 C          67.6035   92.0791   13.0326 C.ar    1  UNL1        0.0062
     24 C          66.9485   91.7046   14.3290 C.ar    1  UNL1        0.0370
     25 C          67.4173   92.7916   10.5410 C.ar    1  UNL1        0.1664
     26 C          68.0919   91.8487    9.5892 C.ar    1  UNL1        0.1396
     27 N          68.6042   92.6492    8.4287 N.ar    1  UNL1       -0.2026
     28 C          68.2462   94.0869    8.6633 C.ar    1  UNL1        0.2851
     29 O          67.5127   94.1749    9.9688 O.2     1  UNL1       -0.4311
@<TRIPOS>BOND
     1     1     2    2
     2     2    17    1
     3    17    18    1
     4    18    19    1
     5    19    20   ar
     6    20    21   ar
     7    21    22   ar
     8    22    25    1
     9    25    26   ar
    10    26    27   ar
    11    27    28   ar
    12    28    29   ar
    13    22    23   ar
    14    23    24   ar
    15     2     3   am
    16     3     5    1
    17     5     6   ar
    18     6     7   ar
    19     7     8   ar
    20     8    11    1
    21    11    12   ar
    22    12    13   ar
    23    13    14   ar
    24    14    15   ar
    25    15    16   ar
    26     8     9   ar
    27     9    10   ar
    28    24    19   ar
    29    10     5   ar
    30    29    25   ar
    31    16    11   ar
    32     3     4    1
@<TRIPOS>MOLECULE
*****
 29 32 0 0 0
SMALL
GASTEIGER

@<TRIPOS>ATOM
      1 O          60.8332   90.4156    5.3300 O.2     1  UNL1       -0.2707
      2 C          59.3501   90.5168    5.5305 C.2     1  UNL1        0.2707
      3 N          58.6715   89.6573    6.5555 N.am    1  UNL1       -0.2809
      4 H          57.6981   89.7237    6.6872 H       1  UNL1        0.1550
      5 C          59.4760   88.6966    7.3801 C.ar    1  UNL1        0.0504
      6 C          59.4663   87.2335    7.0494 C.ar    1  UNL1        0.0147
      7 C          60.2708   86.2729    7.8739 C.ar    1  UNL1        0.0013
      8 C          61.0851   86.7752    9.0291 C.ar    1  UNL1        0.0001
      9 C          61.0949   88.2383    9.3598 C.ar    1  UNL1        0.0013
     10 C          60.2903   89.1990    8.5353 C.ar    1  UNL1        0.0147
     11 C          61.8896   85.8146    9.8536 C.ar    1  UNL1        0.0000
     12 C          61.7121   85.7728   11.3425 C.ar    1  UNL1        0.0000
     13 C          62.5166   84.8121   12.1671 C.ar    1  UNL1        0.0000
     14 C          63.4986   83.8932   11.5027 C.ar    1  UNL1        0.0000
     15 C          63.6761   83.9350   10.0139 C.ar    1  UNL1        0.0000
     16 C          62.8716   84.8957    9.1893 C.ar    1  UNL1        0.0000
     17 C          58.5456   91.4775    4.7059 C.3     1  UNL1        0.2897
     18 O          59.1352   92.7967    4.3034 O.3     1  UNL1       -0.4656
     19 C          59.8798   92.9212    3.0071 C.ar    1  UNL1        0.1393
     20 C          61.3731   92.7822    2.9837 C.ar    1  UNL1        0.0370
     21 C          62.1176   92.9067    1.6875 C.ar    1  UNL1        0.0062
     22 C          61.3688   93.1703    0.4148 C.ar    1  UNL1        0.0364
     23 C          59.8755   93.3093    0.4382 C.ar    1  UNL1        0.0062
     24 C          59.1309   93.1848    1.7344 C.ar    1  UNL1        0.0370
     25 C          62.1134   93.2948   -0.8815 C.ar    1  UNL1        0.1664
     26 C          63.5749   93.5966   -1.0332 C.ar    1  UNL1        0.1396
     27 N          63.8920   93.6277   -2.4990 N.ar    1  UNL1       -0.2026
     28 C          62.6264   93.3451   -3.2531 C.ar    1  UNL1        0.2851
     29 O          61.5272   93.1394   -2.2534 O.2     1  UNL1       -0.4311
@<TRIPOS>BOND
     1     1     2    2
     2     2    17    1
     3    17    18    1
     4    18    19    1
     5    19    20   ar
     6    20    21   ar
     7    21    22   ar
     8    22    25    1
     9    25    26   ar
    10    26    27   ar
    11    27    28   ar
    12    28    29   ar
    13    22    23   ar
    14    23    24   ar
    15     2     3   am
    16     3     5    1
    17     5     6   ar
    18     6     7   ar
    19     7     8   ar
    20     8    11    1
    21    11    12   ar
    22    12    13   ar
    23    13    14   ar
    24    14    15   ar
    25    15    16   ar
    26     8     9   ar
    27     9    10   ar
    28    24    19   ar
    29    10     5   ar
    30    29    25   ar
    31    16    11   ar
    32     3     4    1
