@<TRIPOS>MOLECULE
*****
 34 37 0 0 0
SMALL
GASTEIGER

@<TRIPOS>ATOM
      1 N          62.2042   86.9505   10.0399 N.pl3   1  UNL1       -0.2926
      2 C          61.9441   86.8205    8.5684 C.3     1  UNL1        0.0922
      3 C          62.2181   85.5215    7.8702 C.3     1  UNL1        0.0220
      4 C          62.7522   84.3524    8.6436 C.3     1  UNL1        0.0126
      5 C          63.0123   84.4825   10.1152 C.3     1  UNL1        0.0963
      6 C          62.7382   85.7815   10.8133 C.3     1  UNL1        0.1012
      7 C          58.8672   90.6514   11.5123 C.3     1  UNL1        0.0738
      8 C          60.2616   90.1000   11.4743 C.ar    1  UNL1        0.1424
      9 N          61.3820   90.8476   12.1344 N.ar    1  UNL1       -0.2159
     10 C          62.7764   90.2962   12.0964 C.ar    1  UNL1        0.1359
     11 C          63.0505   88.9972   11.3983 C.ar    1  UNL1        0.0686
     12 C          61.9301   88.2496   10.7381 C.ar    1  UNL1        0.1358
     13 N          60.5357   88.8010   10.7761 N.ar    1  UNL1       -0.2159
     14 N          63.8969   91.0438   12.7566 N.pl3   1  UNL1       -0.2903
     15 C          64.1820   90.8341   14.2142 C.3     1  UNL1        0.1095
     16 C          65.3024   91.5816   14.8744 C.3     1  UNL1        0.0939
     17 N          66.1376   92.5391   14.0770 N.3     1  UNL1       -0.2686
     18 C          67.2579   93.2867   14.7372 C.3     1  UNL1        0.0897
     19 C          65.8524   92.7488   12.6193 C.3     1  UNL1        0.0939
     20 C          64.7320   92.0012   11.9592 C.3     1  UNL1        0.1095
     21 C          63.5464   83.3135   10.8886 C.2     1  UNL1        0.2237
     22 O          65.0091   82.9855   10.8374 O.2     1  UNL1       -0.2751
     23 N          62.6176   82.4724   11.7133 N.am    1  UNL1       -0.3040
     24 H          61.6575   82.6877   11.7470 H       1  UNL1        0.1494
     25 C          63.1517   81.3034   12.4867 C.3     1  UNL1        0.0941
     26 C          63.7265   81.5100   13.8567 C.3     1  UNL1        0.0476
     27 C          63.6206   82.8512   14.5200 C.ar    1  UNL1       -0.0204
     28 C          62.4094   83.1900   15.3375 C.ar    1  UNL1       -0.0035
     29 C          62.3035   84.5312   16.0008 C.ar    1  UNL1        0.0100
     30 C          63.4087   85.5335   15.8468 C.ar    1  UNL1        0.0684
     31 C          64.6199   85.1947   15.0293 C.ar    1  UNL1        0.0100
     32 C          64.7258   83.8535   14.3660 C.ar    1  UNL1       -0.0035
     33 C          63.3028   86.8747   16.5101 C.1     1  UNL1        0.1004
     34 N          63.1968   88.2159   17.1735 N.1     1  UNL1       -0.1908
@<TRIPOS>BOND
     1     7     8    1
     2     8     9   ar
     3     9    10   ar
     4    10    14    1
     5    14    15    1
     6    15    16    1
     7    16    17    1
     8    17    18    1
     9    17    19    1
    10    19    20    1
    11    10    11   ar
    12    11    12   ar
    13    12     1    1
    14     1     2    1
    15     2     3    1
    16     3     4    1
    17     4     5    1
    18     5    21    1
    19    21    22    2
    20    21    23   am
    21    23    25    1
    22    25    26    1
    23    26    27    1
    24    27    28   ar
    25    28    29   ar
    26    29    30   ar
    27    30    33    1
    28    33    34    3
    29    30    31   ar
    30    31    32   ar
    31     5     6    1
    32    12    13   ar
    33    13     8   ar
    34    20    14    1
    35     6     1    1
    36    32    27   ar
    37    23    24    1
@<TRIPOS>MOLECULE
*****
 34 37 0 0 0
SMALL
GASTEIGER

@<TRIPOS>ATOM
      1 N          63.8941   84.6017   14.2669 N.pl3   1  UNL1       -0.2926
      2 C          64.0857   83.3289   15.0371 C.3     1  UNL1        0.0922
      3 C          64.2121   82.0234   14.3090 C.3     1  UNL1        0.0220
      4 C          64.1468   81.9909   12.8108 C.3     1  UNL1        0.0126
      5 C          63.9552   83.2638   12.0406 C.3     1  UNL1        0.0963
      6 C          63.8288   84.5691   12.7687 C.3     1  UNL1        0.1012
      7 C          62.5366   87.2739   18.5114 C.3     1  UNL1        0.0738
      8 C          63.0890   87.2432   17.1172 C.ar    1  UNL1        0.1424
      9 N          63.5151   88.5178   16.4510 N.ar    1  UNL1       -0.2159
     10 C          64.0675   88.4870   15.0568 C.ar    1  UNL1        0.1359
     11 C          64.1938   87.1817   14.3287 C.ar    1  UNL1        0.0686
     12 C          63.7678   85.9071   14.9949 C.ar    1  UNL1        0.1358
     13 N          63.2154   85.9379   16.3892 N.ar    1  UNL1       -0.2159
     14 N          64.4936   89.7617   14.3906 N.pl3   1  UNL1       -0.2903
     15 C          65.5875   90.5931   14.9923 C.3     1  UNL1        0.1095
     16 C          66.0136   91.8677   14.3261 C.3     1  UNL1        0.0939
     17 N          65.3457   92.3110   13.0583 N.3     1  UNL1       -0.2686
     18 C          65.7718   93.5856   12.3921 C.3     1  UNL1        0.0897
     19 C          64.2517   91.4796   12.4566 C.3     1  UNL1        0.0939
     20 C          63.8256   90.2050   13.1228 C.3     1  UNL1        0.1095
     21 C          63.8899   83.2313   10.5424 C.2     1  UNL1        0.2237
     22 O          64.5858   82.1395    9.7849 O.2     1  UNL1       -0.2751
     23 N          63.1287   84.2905    9.8017 N.am    1  UNL1       -0.3040
     24 H          62.6720   85.0071   10.2988 H       1  UNL1        0.1494
     25 C          63.0635   84.2580    8.3034 C.3     1  UNL1        0.0941
     26 C          62.2038   85.2433    7.5686 C.3     1  UNL1        0.0476
     27 C          61.6116   86.4125    8.2982 C.ar    1  UNL1       -0.0204
     28 C          60.2110   86.8550    7.9942 C.ar    1  UNL1       -0.0035
     29 C          59.6188   88.0243    8.7238 C.ar    1  UNL1        0.0100
     30 C          60.4273   88.7510    9.7573 C.ar    1  UNL1        0.0684
     31 C          61.8279   88.3084   10.0613 C.ar    1  UNL1        0.0100
     32 C          62.4200   87.1392    9.3317 C.ar    1  UNL1       -0.0035
     33 C          59.8351   89.9202   10.4869 C.1     1  UNL1        0.1004
     34 N          59.2429   91.0894   11.2165 N.1     1  UNL1       -0.1908
@<TRIPOS>BOND
     1     7     8    1
     2     8     9   ar
     3     9    10   ar
     4    10    14    1
     5    14    15    1
     6    15    16    1
     7    16    17    1
     8    17    18    1
     9    17    19    1
    10    19    20    1
    11    10    11   ar
    12    11    12   ar
    13    12     1    1
    14     1     2    1
    15     2     3    1
    16     3     4    1
    17     4     5    1
    18     5    21    1
    19    21    22    2
    20    21    23   am
    21    23    25    1
    22    25    26    1
    23    26    27    1
    24    27    28   ar
    25    28    29   ar
    26    29    30   ar
    27    30    33    1
    28    33    34    3
    29    30    31   ar
    30    31    32   ar
    31     5     6    1
    32    12    13   ar
    33    13     8   ar
    34    20    14    1
    35     6     1    1
    36    32    27   ar
    37    23    24    1
@<TRIPOS>MOLECULE
*****
 34 37 0 0 0
SMALL
GASTEIGER

@<TRIPOS>ATOM
      1 N          62.2160   88.7044   10.8798 N.pl3   1  UNL1       -0.2926
      2 C          62.3427   87.2554   11.2464 C.3     1  UNL1        0.0922
      3 C          61.5603   86.2202   10.4939 C.3     1  UNL1        0.0220
      4 C          60.6513   86.6340    9.3748 C.3     1  UNL1        0.0126
      5 C          60.5246   88.0830    9.0082 C.3     1  UNL1        0.0963
      6 C          61.3070   89.1182    9.7607 C.3     1  UNL1        0.1012
      7 C          63.7368   90.8012   15.3844 C.3     1  UNL1        0.0738
      8 C          63.7588   90.7880   13.8846 C.ar    1  UNL1        0.1424
      9 N          64.5631   91.8100   13.1373 N.ar    1  UNL1       -0.2159
     10 C          64.5851   91.7969   11.6375 C.ar    1  UNL1        0.1359
     11 C          63.8028   90.7617   10.8850 C.ar    1  UNL1        0.0686
     12 C          62.9984   89.7397   11.6323 C.ar    1  UNL1        0.1358
     13 N          62.9764   89.7528   13.1321 N.ar    1  UNL1       -0.2159
     14 N          65.3895   92.8190   10.8902 N.pl3   1  UNL1       -0.2903
     15 C          64.9596   94.2560   10.8876 C.3     1  UNL1        0.1095
     16 C          65.7639   95.2781   10.1404 C.3     1  UNL1        0.0939
     17 N          66.9982   94.8631    9.3957 N.3     1  UNL1       -0.2686
     18 C          67.8025   95.8852    8.6485 C.3     1  UNL1        0.0897
     19 C          67.4281   93.4260    9.3983 C.3     1  UNL1        0.0939
     20 C          66.6237   92.4039   10.1456 C.3     1  UNL1        0.1095
     21 C          59.6156   88.4968    7.8891 C.2     1  UNL1        0.2237
     22 O          58.3541   87.7295    7.6248 O.2     1  UNL1       -0.2751
     23 N          59.9681   89.6779    7.0342 N.am    1  UNL1       -0.3040
     24 H          60.7960   90.1815    7.2076 H       1  UNL1        0.1494
     25 C          59.0590   90.0917    5.9151 C.3     1  UNL1        0.0941
     26 C          59.1081   91.4955    5.3890 C.3     1  UNL1        0.0476
     27 C          60.1353   91.8772    4.3647 C.ar    1  UNL1       -0.0204
     28 C          59.8115   92.9106    3.3269 C.ar    1  UNL1       -0.0035
     29 C          60.8388   93.2923    2.3026 C.ar    1  UNL1        0.0100
     30 C          62.1897   92.6405    2.3162 C.ar    1  UNL1        0.0684
     31 C          62.5134   91.6071    3.3540 C.ar    1  UNL1        0.0100
     32 C          61.4862   91.2255    4.3783 C.ar    1  UNL1       -0.0035
     33 C          63.2169   93.0222    1.2919 C.1     1  UNL1        0.1004
     34 N          64.2441   93.4039    0.2676 N.1     1  UNL1       -0.1908
@<TRIPOS>BOND
     1     7     8    1
     2     8     9   ar
     3     9    10   ar
     4    10    14    1
     5    14    15    1
     6    15    16    1
     7    16    17    1
     8    17    18    1
     9    17    19    1
    10    19    20    1
    11    10    11   ar
    12    11    12   ar
    13    12     1    1
    14     1     2    1
    15     2     3    1
    16     3     4    1
    17     4     5    1
    18     5    21    1
    19    21    22    2
    20    21    23   am
    21    23    25    1
    22    25    26    1
    23    26    27    1
    24    27    28   ar
    25    28    29   ar
    26    29    30   ar
    27    30    33    1
    28    33    34    3
    29    30    31   ar
    30    31    32   ar
    31     5     6    1
    32    12    13   ar
    33    13     8   ar
    34    20    14    1
    35     6     1    1
    36    32    27   ar
    37    23    24    1
@<TRIPOS>MOLECULE
*****
 34 37 0 0 0
SMALL
GASTEIGER

@<TRIPOS>ATOM
      1 N          64.8925   90.7271   15.2613 N.pl3   1  UNL1       -0.2926
      2 C          63.8431   90.9658   16.3062 C.3     1  UNL1        0.0922
      3 C          62.9148   89.8567   16.7039 C.3     1  UNL1        0.0220
      4 C          63.0359   88.5089   16.0567 C.3     1  UNL1        0.0126
      5 C          64.0854   88.2703   15.0118 C.3     1  UNL1        0.0963
      6 C          65.0136   89.3794   14.6141 C.3     1  UNL1        0.1012
      7 C          68.8292   93.9241   16.3935 C.3     1  UNL1        0.0738
      8 C          67.7892   93.4347   15.4297 C.ar    1  UNL1        0.1424
      9 N          67.6775   94.0544   14.0683 N.ar    1  UNL1       -0.2159
     10 C          66.6374   93.5650   13.1046 C.ar    1  UNL1        0.1359
     11 C          65.7091   92.4559   13.5022 C.ar    1  UNL1        0.0686
     12 C          65.8209   91.8363   14.8636 C.ar    1  UNL1        0.1358
     13 N          66.8609   92.3257   15.8274 N.ar    1  UNL1       -0.2159
     14 N          66.5258   94.1848   11.7431 N.pl3   1  UNL1       -0.2903
     15 C          66.9114   93.3967   10.5264 C.3     1  UNL1        0.1095
     16 C          66.7997   94.0164    9.1650 C.3     1  UNL1        0.0939
     17 N          66.3024   95.4242    9.0202 N.3     1  UNL1       -0.2686
     18 C          66.1907   96.0438    7.6588 C.3     1  UNL1        0.0897
     19 C          65.9168   96.2122   10.2369 C.3     1  UNL1        0.0939
     20 C          66.0285   95.5925   11.5984 C.3     1  UNL1        0.1095
     21 C          64.2065   86.9225   14.3646 C.2     1  UNL1        0.2237
     22 O          65.1431   85.8986   14.9339 O.2     1  UNL1       -0.2751
     23 N          63.3909   86.5987   13.1480 N.am    1  UNL1       -0.3040
     24 H          62.7762   87.2708   12.7743 H       1  UNL1        0.1494
     25 C          63.5120   85.2510   12.5008 C.3     1  UNL1        0.0941
     26 C          62.4094   84.7391   11.6220 C.3     1  UNL1        0.0476
     27 C          61.7503   85.6561   10.6347 C.ar    1  UNL1       -0.0204
     28 C          60.8938   86.7883   11.1186 C.ar    1  UNL1       -0.0035
     29 C          60.2347   87.7053   10.1313 C.ar    1  UNL1        0.0100
     30 C          60.4321   87.4899    8.6601 C.ar    1  UNL1        0.0684
     31 C          61.2887   86.3577    8.1762 C.ar    1  UNL1        0.0100
     32 C          61.9478   85.4407    9.1635 C.ar    1  UNL1       -0.0035
     33 C          59.7730   88.4069    7.6727 C.1     1  UNL1        0.1004
     34 N          59.1139   89.3238    6.6854 N.1     1  UNL1       -0.1908
@<TRIPOS>BOND
     1     7     8    1
     2     8     9   ar
     3     9    10   ar
     4    10    14    1
     5    14    15    1
     6    15    16    1
     7    16    17    1
     8    17    18    1
     9    17    19    1
    10    19    20    1
    11    10    11   ar
    12    11    12   ar
    13    12     1    1
    14     1     2    1
    15     2     3    1
    16     3     4    1
    17     4     5    1
    18     5    21    1
    19    21    22    2
    20    21    23   am
    21    23    25    1
    22    25    26    1
    23    26    27    1
    24    27    28   ar
    25    28    29   ar
    26    29    30   ar
    27    30    33    1
    28    33    34    3
    29    30    31   ar
    30    31    32   ar
    31     5     6    1
    32    12    13   ar
    33    13     8   ar
    34    20    14    1
    35     6     1    1
    36    32    27   ar
    37    23    24    1
@<TRIPOS>MOLECULE
*****
 34 37 0 0 0
SMALL
GASTEIGER

@<TRIPOS>ATOM
      1 N          64.8563   90.7210   15.2998 N.pl3   1  UNL1       -0.2926
      2 C          63.7834   91.1928   16.2358 C.3     1  UNL1        0.0922
      3 C          62.7341   90.2352   16.7176 C.3     1  UNL1        0.0220
      4 C          62.7578   88.8058   16.2634 C.3     1  UNL1        0.0126
      5 C          63.8308   88.3340   15.3274 C.3     1  UNL1        0.0963
      6 C          64.8800   89.2916   14.8456 C.3     1  UNL1        0.1012
      7 C          69.3269   93.2564   16.0648 C.3     1  UNL1        0.0738
      8 C          68.1409   92.9463   15.2005 C.ar    1  UNL1        0.1424
      9 N          68.0041   93.5936   13.8543 N.ar    1  UNL1       -0.2159
     10 C          66.8180   93.2835   12.9900 C.ar    1  UNL1        0.1359
     11 C          65.7688   92.3260   13.4718 C.ar    1  UNL1        0.0686
     12 C          65.9056   91.6786   14.8179 C.ar    1  UNL1        0.1358
     13 N          67.0916   91.9888   15.6823 N.ar    1  UNL1       -0.2159
     14 N          66.6813   93.9309   11.6438 N.pl3   1  UNL1       -0.2903
     15 C          66.0008   95.2617   11.5172 C.3     1  UNL1        0.1095
     16 C          65.8640   95.9091   10.1711 C.3     1  UNL1        0.0939
     17 N          66.4077   95.2258    8.9514 N.3     1  UNL1       -0.2686
     18 C          66.2710   95.8732    7.6053 C.3     1  UNL1        0.0897
     19 C          67.0882   93.8950    9.0780 C.3     1  UNL1        0.0939
     20 C          67.2250   93.2476   10.4242 C.3     1  UNL1        0.1095
     21 C          63.8546   86.9047   14.8732 C.2     1  UNL1        0.2237
     22 O          63.7338   86.5793   13.4139 O.2     1  UNL1       -0.2751
     23 N          63.9990   85.8006   15.8784 N.am    1  UNL1       -0.3040
     24 H          64.0783   86.0142   16.8362 H       1  UNL1        0.1494
     25 C          64.0228   84.3712   15.4242 C.3     1  UNL1        0.0941
     26 C          62.7594   83.7120   14.9560 C.3     1  UNL1        0.0476
     27 C          62.7979   82.7466   13.8086 C.ar    1  UNL1       -0.0204
     28 C          62.4071   81.3140   14.0203 C.ar    1  UNL1       -0.0035
     29 C          62.4456   80.3486   12.8729 C.ar    1  UNL1        0.0100
     30 C          62.8750   80.8157   11.5138 C.ar    1  UNL1        0.0684
     31 C          63.2658   82.2483   11.3020 C.ar    1  UNL1        0.0100
     32 C          63.2273   83.2137   12.4494 C.ar    1  UNL1       -0.0035
     33 C          62.9135   79.8503   10.3664 C.1     1  UNL1        0.1004
     34 N          62.9520   78.8849    9.2190 N.1     1  UNL1       -0.1908
@<TRIPOS>BOND
     1     7     8    1
     2     8     9   ar
     3     9    10   ar
     4    10    14    1
     5    14    15    1
     6    15    16    1
     7    16    17    1
     8    17    18    1
     9    17    19    1
    10    19    20    1
    11    10    11   ar
    12    11    12   ar
    13    12     1    1
    14     1     2    1
    15     2     3    1
    16     3     4    1
    17     4     5    1
    18     5    21    1
    19    21    22    2
    20    21    23   am
    21    23    25    1
    22    25    26    1
    23    26    27    1
    24    27    28   ar
    25    28    29   ar
    26    29    30   ar
    27    30    33    1
    28    33    34    3
    29    30    31   ar
    30    31    32   ar
    31     5     6    1
    32    12    13   ar
    33    13     8   ar
    34    20    14    1
    35     6     1    1
    36    32    27   ar
    37    23    24    1
@<TRIPOS>MOLECULE
*****
 34 37 0 0 0
SMALL
GASTEIGER

@<TRIPOS>ATOM
      1 N          62.5534   86.0362    9.9232 N.pl3   1  UNL1       -0.2926
      2 C          62.7776   85.2444    8.6691 C.3     1  UNL1        0.0922
      3 C          63.1203   83.7865    8.7538 C.3     1  UNL1        0.0220
      4 C          63.2388   83.1205   10.0926 C.3     1  UNL1        0.0126
      5 C          63.0146   83.9124   11.3467 C.3     1  UNL1        0.0963
      6 C          62.6719   85.3702   11.2620 C.3     1  UNL1        0.1012
      7 C          59.4252   89.8339    8.2521 C.3     1  UNL1        0.0738
      8 C          60.6466   89.3929    9.0029 C.ar    1  UNL1        0.1424
      9 N          61.5253   90.4098    9.6691 N.ar    1  UNL1       -0.2159
     10 C          62.7468   89.9689   10.4199 C.ar    1  UNL1        0.1359
     11 C          63.0895   88.5111   10.5046 C.ar    1  UNL1        0.0686
     12 C          62.2108   87.4942    9.8385 C.ar    1  UNL1        0.1358
     13 N          60.9893   87.9351    9.0877 N.ar    1  UNL1       -0.2159
     14 N          63.6255   90.9859   11.0860 N.pl3   1  UNL1       -0.2903
     15 C          64.2552   92.0793   10.2749 C.3     1  UNL1        0.1095
     16 C          65.1338   93.0963   10.9409 C.3     1  UNL1        0.0939
     17 N          65.3829   93.0198   12.4182 N.3     1  UNL1       -0.2686
     18 C          66.2616   94.0368   13.0842 C.3     1  UNL1        0.0897
     19 C          64.7532   91.9264   13.2293 C.3     1  UNL1        0.0939
     20 C          63.8745   90.9094   12.5632 C.3     1  UNL1        0.1095
     21 C          63.1330   83.2463   12.6855 C.2     1  UNL1        0.2237
     22 O          63.8028   81.9092   12.8013 O.2     1  UNL1       -0.2751
     23 N          62.5817   83.9175   13.9085 N.am    1  UNL1       -0.3040
     24 H          62.1421   84.7951   13.8325 H       1  UNL1        0.1494
     25 C          62.7001   83.2515   15.2473 C.3     1  UNL1        0.0941
     26 C          63.3297   83.9827   16.3957 C.3     1  UNL1        0.0476
     27 C          63.3493   85.4825   16.4096 C.ar    1  UNL1       -0.0204
     28 C          62.6510   86.2316   17.5056 C.ar    1  UNL1       -0.0035
     29 C          62.6705   87.7314   17.5195 C.ar    1  UNL1        0.0100
     30 C          63.3883   88.4822   16.4374 C.ar    1  UNL1        0.0684
     31 C          64.0866   87.7331   15.3414 C.ar    1  UNL1        0.0100
     32 C          64.0671   86.2333   15.3275 C.ar    1  UNL1       -0.0035
     33 C          63.4078   89.9820   16.4513 C.1     1  UNL1        0.1004
     34 N          63.4274   91.4818   16.4652 N.1     1  UNL1       -0.1908
@<TRIPOS>BOND
     1     7     8    1
     2     8     9   ar
     3     9    10   ar
     4    10    14    1
     5    14    15    1
     6    15    16    1
     7    16    17    1
     8    17    18    1
     9    17    19    1
    10    19    20    1
    11    10    11   ar
    12    11    12   ar
    13    12     1    1
    14     1     2    1
    15     2     3    1
    16     3     4    1
    17     4     5    1
    18     5    21    1
    19    21    22    2
    20    21    23   am
    21    23    25    1
    22    25    26    1
    23    26    27    1
    24    27    28   ar
    25    28    29   ar
    26    29    30   ar
    27    30    33    1
    28    33    34    3
    29    30    31   ar
    30    31    32   ar
    31     5     6    1
    32    12    13   ar
    33    13     8   ar
    34    20    14    1
    35     6     1    1
    36    32    27   ar
    37    23    24    1
@<TRIPOS>MOLECULE
*****
 34 37 0 0 0
SMALL
GASTEIGER

@<TRIPOS>ATOM
      1 N          64.8203   90.3897   15.2755 N.pl3   1  UNL1       -0.2926
      2 C          63.6311   90.9532   15.9954 C.3     1  UNL1        0.0922
      3 C          62.5387   90.0403   16.4681 C.3     1  UNL1        0.0220
      4 C          62.6355   88.5640   16.2208 C.3     1  UNL1        0.0126
      5 C          63.8248   88.0006   15.5009 C.3     1  UNL1        0.0963
      6 C          64.9171   88.9134   15.0283 C.3     1  UNL1        0.1012
      7 C          69.4471   92.6337   16.0218 C.3     1  UNL1        0.0738
      8 C          68.2261   92.4245   15.1760 C.ar    1  UNL1        0.1424
      9 N          68.0975   93.1282   13.8576 N.ar    1  UNL1       -0.2159
     10 C          66.8765   92.9190   13.0117 C.ar    1  UNL1        0.1359
     11 C          65.7841   92.0062   13.4844 C.ar    1  UNL1        0.0686
     12 C          65.9127   91.3026   14.8028 C.ar    1  UNL1        0.1358
     13 N          67.1337   91.5117   15.6486 N.ar    1  UNL1       -0.2159
     14 N          66.7480   93.6227   11.6932 N.pl3   1  UNL1       -0.2903
     15 C          67.2490   92.9664   10.4409 C.3     1  UNL1        0.1095
     16 C          67.1205   93.6700    9.1224 C.3     1  UNL1        0.0939
     17 N          66.4909   95.0299    9.0563 N.3     1  UNL1       -0.2686
     18 C          66.3624   95.7335    7.7378 C.3     1  UNL1        0.0897
     19 C          65.9899   95.6862   10.3086 C.3     1  UNL1        0.0939
     20 C          66.1184   94.9825   11.6271 C.3     1  UNL1        0.1095
     21 C          63.9216   86.5243   15.2537 C.2     1  UNL1        0.2237
     22 O          62.7708   85.6281   15.6036 O.2     1  UNL1       -0.2751
     23 N          65.1694   85.9441   14.6566 N.am    1  UNL1       -0.3040
     24 H          65.9248   86.5322   14.4269 H       1  UNL1        0.1494
     25 C          65.2663   84.4678   14.4093 C.3     1  UNL1        0.0941
     26 C          64.1210   83.7371   13.7734 C.3     1  UNL1        0.0476
     27 C          63.7853   83.9784   12.3315 C.ar    1  UNL1       -0.0204
     28 C          64.4221   83.1404   11.2628 C.ar    1  UNL1       -0.0035
     29 C          64.0865   83.3817    9.8209 C.ar    1  UNL1        0.0100
     30 C          63.1140   84.4610    9.4477 C.ar    1  UNL1        0.0684
     31 C          62.4772   85.2990   10.5164 C.ar    1  UNL1        0.0100
     32 C          62.8129   85.0577   11.9583 C.ar    1  UNL1       -0.0035
     33 C          62.7783   84.7024    8.0058 C.1     1  UNL1        0.1004
     34 N          62.4427   84.9437    6.5639 N.1     1  UNL1       -0.1908
@<TRIPOS>BOND
     1     7     8    1
     2     8     9   ar
     3     9    10   ar
     4    10    14    1
     5    14    15    1
     6    15    16    1
     7    16    17    1
     8    17    18    1
     9    17    19    1
    10    19    20    1
    11    10    11   ar
    12    11    12   ar
    13    12     1    1
    14     1     2    1
    15     2     3    1
    16     3     4    1
    17     4     5    1
    18     5    21    1
    19    21    22    2
    20    21    23   am
    21    23    25    1
    22    25    26    1
    23    26    27    1
    24    27    28   ar
    25    28    29   ar
    26    29    30   ar
    27    30    33    1
    28    33    34    3
    29    30    31   ar
    30    31    32   ar
    31     5     6    1
    32    12    13   ar
    33    13     8   ar
    34    20    14    1
    35     6     1    1
    36    32    27   ar
    37    23    24    1
@<TRIPOS>MOLECULE
*****
 34 37 0 0 0
SMALL
GASTEIGER

@<TRIPOS>ATOM
      1 N          63.2986   85.5774   13.8789 N.pl3   1  UNL1       -0.2926
      2 C          63.3576   84.4945   14.9152 C.3     1  UNL1        0.0922
      3 C          63.5361   84.8495   16.3616 C.3     1  UNL1        0.0220
      4 C          63.6556   86.2874   16.7718 C.3     1  UNL1        0.0126
      5 C          63.5965   87.3703   15.7355 C.3     1  UNL1        0.0963
      6 C          63.4181   87.0153   14.2891 C.3     1  UNL1        0.1012
      7 C          64.2684   82.4204    9.8673 C.3     1  UNL1        0.0738
      8 C          63.6050   83.6440   10.4267 C.ar    1  UNL1        0.1424
      9 N          62.7632   84.5125    9.5397 N.ar    1  UNL1       -0.2159
     10 C          62.0998   85.7360   10.0990 C.ar    1  UNL1        0.1359
     11 C          62.2782   86.0910   11.5454 C.ar    1  UNL1        0.0686
     12 C          63.1201   85.2225   12.4325 C.ar    1  UNL1        0.1358
     13 N          63.7835   83.9990   11.8731 N.ar    1  UNL1       -0.2159
     14 N          61.2579   86.6046    9.2119 N.pl3   1  UNL1       -0.2903
     15 C          60.4813   85.9941    8.0831 C.3     1  UNL1        0.1095
     16 C          59.6395   86.8626    7.1960 C.3     1  UNL1        0.0939
     17 N          59.5741   88.3416    7.4377 N.3     1  UNL1       -0.2686
     18 C          58.7322   89.2101    6.5506 C.3     1  UNL1        0.0897
     19 C          60.3506   88.9521    8.5666 C.3     1  UNL1        0.0939
     20 C          61.1925   88.0835    9.4537 C.3     1  UNL1        0.1095
     21 C          63.7160   88.8082   16.1456 C.2     1  UNL1        0.2237
     22 O          63.2825   89.2356   17.5165 O.2     1  UNL1       -0.2751
     23 N          64.2690   89.8187   15.1848 N.am    1  UNL1       -0.3040
     24 H          64.5536   89.5382   14.2850 H       1  UNL1        0.1494
     25 C          64.3885   91.2566   15.5950 C.3     1  UNL1        0.0941
     26 C          65.6725   91.9975   15.3663 C.3     1  UNL1        0.0476
     27 C          66.2664   92.0622   13.9904 C.ar    1  UNL1       -0.0204
     28 C          65.3996   92.4034   12.8147 C.ar    1  UNL1       -0.0035
     29 C          65.9934   92.4680   11.4388 C.ar    1  UNL1        0.0100
     30 C          67.4541   92.1916   11.2386 C.ar    1  UNL1        0.0684
     31 C          68.3208   91.8504   12.4143 C.ar    1  UNL1        0.0100
     32 C          67.7270   91.7857   13.7902 C.ar    1  UNL1       -0.0035
     33 C          68.0479   92.2563    9.8626 C.1     1  UNL1        0.1004
     34 N          68.6417   92.3210    8.4867 N.1     1  UNL1       -0.1908
@<TRIPOS>BOND
     1     7     8    1
     2     8     9   ar
     3     9    10   ar
     4    10    14    1
     5    14    15    1
     6    15    16    1
     7    16    17    1
     8    17    18    1
     9    17    19    1
    10    19    20    1
    11    10    11   ar
    12    11    12   ar
    13    12     1    1
    14     1     2    1
    15     2     3    1
    16     3     4    1
    17     4     5    1
    18     5    21    1
    19    21    22    2
    20    21    23   am
    21    23    25    1
    22    25    26    1
    23    26    27    1
    24    27    28   ar
    25    28    29   ar
    26    29    30   ar
    27    30    33    1
    28    33    34    3
    29    30    31   ar
    30    31    32   ar
    31     5     6    1
    32    12    13   ar
    33    13     8   ar
    34    20    14    1
    35     6     1    1
    36    32    27   ar
    37    23    24    1
@<TRIPOS>MOLECULE
*****
 34 37 0 0 0
SMALL
GASTEIGER

@<TRIPOS>ATOM
      1 N          60.5553   88.2593    8.9547 N.pl3   1  UNL1       -0.2926
      2 C          59.9710   86.9075    8.6699 C.3     1  UNL1        0.0922
      3 C          59.0334   86.7242    7.5134 C.3     1  UNL1        0.0220
      4 C          58.6801   87.8928    6.6418 C.3     1  UNL1        0.0126
      5 C          59.2645   89.2446    6.9267 C.3     1  UNL1        0.0963
      6 C          60.2021   89.4279    8.0831 C.3     1  UNL1        0.1012
      7 C          63.4717   91.3590   11.9358 C.3     1  UNL1        0.0738
      8 C          62.9511   89.9925   11.6017 C.ar    1  UNL1        0.1424
      9 N          63.3681   88.8093   12.4239 N.ar    1  UNL1       -0.2159
     10 C          62.8476   87.4428   12.0898 C.ar    1  UNL1        0.1359
     11 C          61.9100   87.2594   10.9334 C.ar    1  UNL1        0.0686
     12 C          61.4930   88.4426   10.1112 C.ar    1  UNL1        0.1358
     13 N          62.0135   89.8091   10.4453 N.ar    1  UNL1       -0.2159
     14 N          63.2646   86.2595   12.9121 N.pl3   1  UNL1       -0.2903
     15 C          64.0818   86.4598   14.1540 C.3     1  UNL1        0.1095
     16 C          64.4988   85.2767   14.9763 C.3     1  UNL1        0.0939
     17 N          64.0988   83.8932   14.5568 N.3     1  UNL1       -0.2686
     18 C          64.5158   82.7101   15.3791 C.3     1  UNL1        0.0897
     19 C          63.2816   83.6929   13.3149 C.3     1  UNL1        0.0939
     20 C          62.8646   84.8761   12.4926 C.3     1  UNL1        0.1095
     21 C          58.9112   90.4132    6.0551 C.2     1  UNL1        0.2237
     22 O          57.4735   90.7885    5.8503 O.2     1  UNL1       -0.2751
     23 N          59.9958   91.2064    5.3883 N.am    1  UNL1       -0.3040
     24 H          60.9395   90.9601    5.5228 H       1  UNL1        0.1494
     25 C          59.6425   92.3750    4.5167 C.3     1  UNL1        0.0941
     26 C          59.8257   92.2848    3.0307 C.3     1  UNL1        0.0476
     27 C          61.0003   92.9512    2.3780 C.ar    1  UNL1       -0.0204
     28 C          60.8230   94.2657    1.6776 C.ar    1  UNL1       -0.0035
     29 C          61.9976   94.9322    1.0249 C.ar    1  UNL1        0.0100
     30 C          63.3496   94.2842    1.0725 C.ar    1  UNL1        0.0684
     31 C          63.5269   92.9698    1.7729 C.ar    1  UNL1        0.0100
     32 C          62.3523   92.3033    2.4256 C.ar    1  UNL1       -0.0035
     33 C          64.5242   94.9507    0.4198 C.1     1  UNL1        0.1004
     34 N          65.6988   95.6172   -0.2330 N.1     1  UNL1       -0.1908
@<TRIPOS>BOND
     1     7     8    1
     2     8     9   ar
     3     9    10   ar
     4    10    14    1
     5    14    15    1
     6    15    16    1
     7    16    17    1
     8    17    18    1
     9    17    19    1
    10    19    20    1
    11    10    11   ar
    12    11    12   ar
    13    12     1    1
    14     1     2    1
    15     2     3    1
    16     3     4    1
    17     4     5    1
    18     5    21    1
    19    21    22    2
    20    21    23   am
    21    23    25    1
    22    25    26    1
    23    26    27    1
    24    27    28   ar
    25    28    29   ar
    26    29    30   ar
    27    30    33    1
    28    33    34    3
    29    30    31   ar
    30    31    32   ar
    31     5     6    1
    32    12    13   ar
    33    13     8   ar
    34    20    14    1
    35     6     1    1
    36    32    27   ar
    37    23    24    1
