@<TRIPOS>MOLECULE
*****
 44 48 0 0 0
SMALL
GASTEIGER

@<TRIPOS>ATOM
      1 N          62.3724   87.8760   11.3047 N.am    1  UNL1       -0.2741
      2 C          62.1768   86.5422   11.9627 C.2     1  UNL1        0.2303
      3 O          61.7486   86.4697   13.3984 O.2     1  UNL1       -0.2745
      4 C          60.8040   89.3925   12.7154 C.3     1  UNL1        0.0297
      5 C          62.1397   89.1373   12.0825 C.3     1  UNL1        0.1325
      6 C          63.2429   90.1434   12.2274 C.ar    1  UNL1        0.1462
      7 N          63.5123   91.1248   11.1256 N.ar    1  UNL1       -0.2114
      8 C          64.6155   92.1309   11.2705 C.ar    1  UNL1        0.1682
      9 N          64.8850   93.1123   10.1687 N.ar    1  UNL1       -0.2249
     10 C          65.9881   94.1183   10.3136 C.ar    1  UNL1        0.1006
     11 C          66.8217   94.1429   11.5604 C.ar    1  UNL1        0.0209
     12 C          66.5522   93.1614   12.6622 C.ar    1  UNL1        0.0094
     13 C          65.4491   92.1554   12.5173 C.ar    1  UNL1        0.0923
     14 C          65.1796   91.1739   13.6192 C.ar    1  UNL1        0.2685
     15 O          66.0132   91.1985   14.8659 O.2     1  UNL1       -0.2665
     16 N          64.0765   90.1679   13.4742 N.ar    1  UNL1       -0.2612
     17 C          63.8070   89.1864   14.5761 C.ar    1  UNL1        0.0680
     18 C          62.9842   89.5967   15.7613 C.ar    1  UNL1        0.0185
     19 C          62.7147   88.6152   16.8631 C.ar    1  UNL1        0.0129
     20 C          63.2679   87.2235   16.7797 C.ar    1  UNL1        0.0578
     21 CL         62.9984   86.2420   17.8816 Cl      1  UNL1       -0.0822
     22 C          64.0906   86.8132   15.5945 C.ar    1  UNL1        0.0129
     23 C          64.3601   87.7946   14.4927 C.ar    1  UNL1        0.0185
     24 C          62.8006   87.9484    9.8690 C.3     1  UNL1        0.0938
     25 C          62.2923   86.9388    8.8829 C.3     1  UNL1        0.0234
     26 C          60.8400   86.9213    8.5084 C.3     1  UNL1        0.0271
     27 C          60.3317   85.9117    7.5223 C.3     1  UNL1        0.1509
     28 S          61.2759   84.9196    6.9107 S.O2    1  UNL1       -0.0100
     29 O          61.7760   83.7844    6.0672 O.2     1  UNL1       -0.1730
     30 O          59.9971   84.5079    6.2433 O.2     1  UNL1       -0.1730
     31 C          62.7283   84.9371    7.2851 C.3     1  UNL1        0.1509
     32 C          63.2365   85.9467    8.2712 C.3     1  UNL1        0.0271
     33 C          62.4095   85.2809   11.1848 C.3     1  UNL1        0.1116
     34 C          62.8819   84.0428   11.8875 C.ar    1  UNL1       -0.0130
     35 C          63.6181   84.1541   13.1897 C.ar    1  UNL1       -0.0015
     36 C          64.0906   82.9159   13.8923 C.ar    1  UNL1        0.0293
     37 C          63.8268   81.5664   13.2928 C.ar    1  UNL1        0.1440
     38 F          64.2993   80.3283   13.9955 F       1  UNL1       -0.2042
     39 C          63.0906   81.4551   11.9907 C.ar    1  UNL1        0.0985
     40 C          62.6182   82.6933   11.2880 C.ar    1  UNL1        0.0023
     41 C          62.8269   80.1057   11.3912 C.3     1  UNL1        0.4207
     42 F          62.5631   78.7562   10.7917 F       1  UNL1       -0.1658
     43 F          63.3193   80.5994   10.0632 F       1  UNL1       -0.1658
     44 F          62.3344   79.6120   12.7192 F       1  UNL1       -0.1658
@<TRIPOS>BOND
     1     5     4    1
     2     5     6    1
     3     6     7   ar
     4     7     8   ar
     5     8     9   ar
     6     9    10   ar
     7    10    11   ar
     8    11    12   ar
     9    12    13   ar
    10    13    14   ar
    11    14    15    2
    12    14    16   ar
    13    16    17    1
    14    17    18   ar
    15    18    19   ar
    16    19    20   ar
    17    20    21    1
    18    20    22   ar
    19    22    23   ar
    20     5     1    1
    21     1    24    1
    22    24    25    1
    23    25    26    1
    24    26    27    1
    25    27    28    1
    26    28    29    2
    27    28    30    2
    28    28    31    1
    29    31    32    1
    30     1     2   am
    31     2     3    2
    32     2    33    1
    33    33    34    1
    34    34    35   ar
    35    35    36   ar
    36    36    37   ar
    37    37    38    1
    38    37    39   ar
    39    39    41    1
    40    41    42    1
    41    41    43    1
    42    41    44    1
    43    39    40   ar
    44    16     6   ar
    45    23    17   ar
    46    32    25    1
    47    40    34   ar
    48    13     8   ar
@<TRIPOS>MOLECULE
*****
 44 48 0 0 0
SMALL
GASTEIGER

@<TRIPOS>ATOM
      1 N          63.6022   90.6418   13.0432 N.am    1  UNL1       -0.2741
      2 C          64.0576   91.6728   12.0535 C.2     1  UNL1        0.2303
      3 O          63.4828   91.6880   10.6681 O.2     1  UNL1       -0.2745
      4 C          61.2179   90.0730   12.1823 C.3     1  UNL1        0.0297
      5 C          62.5719   89.6259   12.6475 C.3     1  UNL1        0.1325
      6 C          62.8958   88.1629   12.7171 C.ar    1  UNL1        0.1462
      7 N          63.7084   87.6281   13.8589 N.ar    1  UNL1       -0.2114
      8 C          64.0322   86.1651   13.9285 C.ar    1  UNL1        0.1682
      9 N          64.8448   85.6303   15.0703 N.ar    1  UNL1       -0.2249
     10 C          65.1687   84.1674   15.1398 C.ar    1  UNL1        0.1006
     11 C          64.6799   83.2392   14.0676 C.ar    1  UNL1        0.0209
     12 C          63.8673   83.7740   12.9258 C.ar    1  UNL1        0.0094
     13 C          63.5435   85.2369   12.8563 C.ar    1  UNL1        0.0923
     14 C          62.7308   85.7718   11.7145 C.ar    1  UNL1        0.2685
     15 O          62.2421   84.8436   10.6423 O.2     1  UNL1       -0.2665
     16 N          62.4070   87.2347   11.6449 N.ar    1  UNL1       -0.2612
     17 C          61.5944   87.7696   10.5031 C.ar    1  UNL1        0.0680
     18 C          60.2708   87.1481   10.1687 C.ar    1  UNL1        0.0185
     19 C          59.4582   87.6829    9.0270 C.ar    1  UNL1        0.0129
     20 C          59.9692   88.8392    8.2197 C.ar    1  UNL1        0.0578
     21 CL         59.1565   89.3740    7.0779 Cl      1  UNL1       -0.0822
     22 C          61.2928   89.4607    8.5541 C.ar    1  UNL1        0.0129
     23 C          62.1054   88.9259    9.6958 C.ar    1  UNL1        0.0185
     24 C          64.1770   90.6266   14.4286 C.3     1  UNL1        0.0938
     25 C          65.4711   91.3304   14.7114 C.3     1  UNL1        0.0234
     26 C          66.6986   90.9903   13.9193 C.3     1  UNL1        0.0271
     27 C          67.9927   91.6942   14.2021 C.3     1  UNL1        0.1509
     28 S          68.0592   92.7381   15.2771 S.O2    1  UNL1       -0.0100
     29 O          68.6197   93.7910   16.1867 O.2     1  UNL1       -0.1730
     30 O          69.4814   92.7637   14.8008 O.2     1  UNL1       -0.1730
     31 C          66.8318   93.0783   16.0692 C.3     1  UNL1        0.1509
     32 C          65.5377   92.3744   15.7864 C.3     1  UNL1        0.0271
     33 C          65.0879   92.6887   12.4492 C.3     1  UNL1        0.1116
     34 C          65.8823   93.4011   11.3950 C.ar    1  UNL1       -0.0130
     35 C          65.6716   94.8675   11.1600 C.ar    1  UNL1       -0.0015
     36 C          66.4660   95.5799   10.1057 C.ar    1  UNL1        0.0293
     37 C          67.4712   94.8259    9.2865 C.ar    1  UNL1        0.1440
     38 F          68.2656   95.5383    8.2323 F       1  UNL1       -0.2042
     39 C          67.6819   93.3595    9.5215 C.ar    1  UNL1        0.0985
     40 C          66.8875   92.6471   10.5757 C.ar    1  UNL1        0.0023
     41 C          68.6870   92.6055    8.7023 C.3     1  UNL1        0.4207
     42 F          69.6922   91.8514    7.8831 F       1  UNL1       -0.1658
     43 F          68.2680   93.3718    7.4828 F       1  UNL1       -0.1658
     44 F          69.1061   91.8392    9.9218 F       1  UNL1       -0.1658
@<TRIPOS>BOND
     1     5     4    1
     2     5     6    1
     3     6     7   ar
     4     7     8   ar
     5     8     9   ar
     6     9    10   ar
     7    10    11   ar
     8    11    12   ar
     9    12    13   ar
    10    13    14   ar
    11    14    15    2
    12    14    16   ar
    13    16    17    1
    14    17    18   ar
    15    18    19   ar
    16    19    20   ar
    17    20    21    1
    18    20    22   ar
    19    22    23   ar
    20     5     1    1
    21     1    24    1
    22    24    25    1
    23    25    26    1
    24    26    27    1
    25    27    28    1
    26    28    29    2
    27    28    30    2
    28    28    31    1
    29    31    32    1
    30     1     2   am
    31     2     3    2
    32     2    33    1
    33    33    34    1
    34    34    35   ar
    35    35    36   ar
    36    36    37   ar
    37    37    38    1
    38    37    39   ar
    39    39    41    1
    40    41    42    1
    41    41    43    1
    42    41    44    1
    43    39    40   ar
    44    16     6   ar
    45    23    17   ar
    46    32    25    1
    47    40    34   ar
    48    13     8   ar
@<TRIPOS>MOLECULE
*****
 44 48 0 0 0
SMALL
GASTEIGER

@<TRIPOS>ATOM
      1 N          62.5618   87.8999   11.4833 N.am    1  UNL1       -0.2741
      2 C          62.6973   86.5733   12.1704 C.2     1  UNL1        0.2303
      3 O          62.5836   86.4870   13.6635 O.2     1  UNL1       -0.2745
      4 C          60.9796   89.3544   12.9431 C.3     1  UNL1        0.0297
      5 C          62.3126   89.1400   12.2895 C.3     1  UNL1        0.1325
      6 C          63.3964   90.1658   12.4422 C.ar    1  UNL1        0.1462
      7 N          63.6881   91.1209   11.3230 N.ar    1  UNL1       -0.2114
      8 C          64.7719   92.1467   11.4757 C.ar    1  UNL1        0.1682
      9 N          65.0636   93.1018   10.3565 N.ar    1  UNL1       -0.2249
     10 C          66.1474   94.1275   10.5092 C.ar    1  UNL1        0.1006
     11 C          66.9395   94.1980   11.7811 C.ar    1  UNL1        0.0209
     12 C          66.6478   93.2429   12.9002 C.ar    1  UNL1        0.0094
     13 C          65.5640   92.2172   12.7475 C.ar    1  UNL1        0.0923
     14 C          65.2723   91.2620   13.8668 C.ar    1  UNL1        0.2685
     15 O          66.0643   91.3326   15.1386 O.2     1  UNL1       -0.2665
     16 N          64.1885   90.2363   13.7141 N.ar    1  UNL1       -0.2612
     17 C          63.8967   89.2811   14.8333 C.ar    1  UNL1        0.0680
     18 C          64.4465   87.8861   14.7912 C.ar    1  UNL1        0.0185
     19 C          64.1547   86.9310   15.9103 C.ar    1  UNL1        0.0129
     20 C          63.3133   87.3708   17.0715 C.ar    1  UNL1        0.0578
     21 CL         63.0216   86.4156   18.1907 Cl      1  UNL1       -0.0822
     22 C          62.7636   88.7658   17.1136 C.ar    1  UNL1        0.0129
     23 C          63.0553   89.7210   15.9945 C.ar    1  UNL1        0.0185
     24 C          62.6756   87.9863    9.9902 C.3     1  UNL1        0.0938
     25 C          61.4421   87.9220    9.1391 C.3     1  UNL1        0.0234
     26 C          60.7559   89.1870    8.7162 C.3     1  UNL1        0.0271
     27 C          59.5224   89.1226    7.8651 C.3     1  UNL1        0.1509
     28 S          58.9752   87.7934    7.4368 S.O2    1  UNL1       -0.0100
     29 O          58.0819   86.7813    6.7827 O.2     1  UNL1       -0.1730
     30 O          57.9787   88.7069    6.7868 O.2     1  UNL1       -0.1730
     31 C          59.6615   86.5284    7.8596 C.3     1  UNL1        0.1509
     32 C          60.8949   86.5927    8.7107 C.3     1  UNL1        0.0271
     33 C          62.9466   85.3332   11.3642 C.3     1  UNL1        0.1116
     34 C          63.2131   84.0295   12.0565 C.ar    1  UNL1       -0.0130
     35 C          63.7912   84.0198   13.4406 C.ar    1  UNL1       -0.0015
     36 C          64.0577   82.7161   14.1330 C.ar    1  UNL1        0.0293
     37 C          63.7463   81.4221   13.4412 C.ar    1  UNL1        0.1440
     38 F          64.0128   80.1185   14.1335 F       1  UNL1       -0.2042
     39 C          63.1682   81.4318   12.0570 C.ar    1  UNL1        0.0985
     40 C          62.9017   82.7355   11.3647 C.ar    1  UNL1        0.0023
     41 C          62.8568   80.1379   11.3653 C.3     1  UNL1        0.4207
     42 F          62.5453   78.8439   10.6734 F       1  UNL1       -0.1658
     43 F          62.3001   79.5877   12.6449 F       1  UNL1       -0.1658
     44 F          63.4134   80.6880   10.0856 F       1  UNL1       -0.1658
@<TRIPOS>BOND
     1     5     4    1
     2     5     6    1
     3     6     7   ar
     4     7     8   ar
     5     8     9   ar
     6     9    10   ar
     7    10    11   ar
     8    11    12   ar
     9    12    13   ar
    10    13    14   ar
    11    14    15    2
    12    14    16   ar
    13    16    17    1
    14    17    18   ar
    15    18    19   ar
    16    19    20   ar
    17    20    21    1
    18    20    22   ar
    19    22    23   ar
    20     5     1    1
    21     1    24    1
    22    24    25    1
    23    25    26    1
    24    26    27    1
    25    27    28    1
    26    28    29    2
    27    28    30    2
    28    28    31    1
    29    31    32    1
    30     1     2   am
    31     2     3    2
    32     2    33    1
    33    33    34    1
    34    34    35   ar
    35    35    36   ar
    36    36    37   ar
    37    37    38    1
    38    37    39   ar
    39    39    41    1
    40    41    42    1
    41    41    43    1
    42    41    44    1
    43    39    40   ar
    44    16     6   ar
    45    23    17   ar
    46    32    25    1
    47    40    34   ar
    48    13     8   ar
@<TRIPOS>MOLECULE
*****
 44 48 0 0 0
SMALL
GASTEIGER

@<TRIPOS>ATOM
      1 N          63.0265   89.7287   11.1433 N.am    1  UNL1       -0.2741
      2 C          63.6392   91.0717   11.4100 C.2     1  UNL1        0.2303
      3 O          63.5168   91.6955   12.7686 O.2     1  UNL1       -0.2745
      4 C          61.0455   89.6062   12.8197 C.3     1  UNL1        0.0297
      5 C          62.2914   89.0096   12.2353 C.3     1  UNL1        0.1325
      6 C          62.8024   87.6937   12.7429 C.ar    1  UNL1        0.1462
      7 N          62.4351   86.4232   12.0353 N.ar    1  UNL1       -0.2114
      8 C          62.9460   85.1073   12.5428 C.ar    1  UNL1        0.1682
      9 N          62.5787   83.8368   11.8353 N.ar    1  UNL1       -0.2249
     10 C          63.0897   82.5210   12.3428 C.ar    1  UNL1        0.1006
     11 C          63.9679   82.4758   13.5580 C.ar    1  UNL1        0.0209
     12 C          64.3352   83.7464   14.2656 C.ar    1  UNL1        0.0094
     13 C          63.8243   85.0621   13.7580 C.ar    1  UNL1        0.0923
     14 C          64.1916   86.3328   14.4656 C.ar    1  UNL1        0.2685
     15 O          65.0698   86.2876   15.6808 O.2     1  UNL1       -0.2665
     16 N          63.6806   87.6485   13.9580 N.ar    1  UNL1       -0.2612
     17 C          64.0479   88.9192   14.6656 C.ar    1  UNL1        0.0680
     18 C          65.2467   89.7046   14.2229 C.ar    1  UNL1        0.0185
     19 C          65.6141   90.9752   14.9304 C.ar    1  UNL1        0.0129
     20 C          64.7825   91.4604   16.0807 C.ar    1  UNL1        0.0578
     21 CL         65.1498   92.7310   16.7883 Cl      1  UNL1       -0.0822
     22 C          63.5837   90.6750   16.5234 C.ar    1  UNL1        0.0129
     23 C          63.2164   89.4044   15.8159 C.ar    1  UNL1        0.0185
     24 C          63.1489   89.1050    9.7847 C.3     1  UNL1        0.0938
     25 C          61.9962   88.3410    9.2035 C.3     1  UNL1        0.0234
     26 C          62.1652   86.8984    8.8292 C.3     1  UNL1        0.0271
     27 C          61.0125   86.1344    8.2480 C.3     1  UNL1        0.1509
     28 S          59.6909   86.8131    8.0412 S.O2    1  UNL1       -0.0100
     29 O          58.2548   87.0151    7.6582 O.2     1  UNL1       -0.1730
     30 O          59.3611   85.4405    7.5339 O.2     1  UNL1       -0.1730
     31 C          59.5220   88.2557    8.4156 C.3     1  UNL1        0.1509
     32 C          60.6747   89.0197    8.9967 C.3     1  UNL1        0.0271
     33 C          64.3742   91.7909   10.3180 C.3     1  UNL1        0.1116
     34 C          65.1419   93.0416   10.6282 C.ar    1  UNL1       -0.0130
     35 C          65.3852   93.4381   12.0543 C.ar    1  UNL1       -0.0015
     36 C          66.1529   94.6889   12.3645 C.ar    1  UNL1        0.0293
     37 C          66.6774   95.5431   11.2487 C.ar    1  UNL1        0.1440
     38 F          67.4451   96.7938   11.5590 F       1  UNL1       -0.2042
     39 C          66.4342   95.1467    9.8227 C.ar    1  UNL1        0.0985
     40 C          65.6665   93.8960    9.5124 C.ar    1  UNL1        0.0023
     41 C          66.9587   96.0010    8.7068 C.3     1  UNL1        0.4207
     42 F          67.4831   96.8553    7.5910 F       1  UNL1       -0.1658
     43 F          68.2237   95.1952    8.6846 F       1  UNL1       -0.1658
     44 F          65.6937   96.8067    8.7291 F       1  UNL1       -0.1658
@<TRIPOS>BOND
     1     5     4    1
     2     5     6    1
     3     6     7   ar
     4     7     8   ar
     5     8     9   ar
     6     9    10   ar
     7    10    11   ar
     8    11    12   ar
     9    12    13   ar
    10    13    14   ar
    11    14    15    2
    12    14    16   ar
    13    16    17    1
    14    17    18   ar
    15    18    19   ar
    16    19    20   ar
    17    20    21    1
    18    20    22   ar
    19    22    23   ar
    20     5     1    1
    21     1    24    1
    22    24    25    1
    23    25    26    1
    24    26    27    1
    25    27    28    1
    26    28    29    2
    27    28    30    2
    28    28    31    1
    29    31    32    1
    30     1     2   am
    31     2     3    2
    32     2    33    1
    33    33    34    1
    34    34    35   ar
    35    35    36   ar
    36    36    37   ar
    37    37    38    1
    38    37    39   ar
    39    39    41    1
    40    41    42    1
    41    41    43    1
    42    41    44    1
    43    39    40   ar
    44    16     6   ar
    45    23    17   ar
    46    32    25    1
    47    40    34   ar
    48    13     8   ar
@<TRIPOS>MOLECULE
*****
 44 48 0 0 0
SMALL
GASTEIGER

@<TRIPOS>ATOM
      1 N          62.0371   88.1362   11.2105 N.am    1  UNL1       -0.2741
      2 C          61.5703   86.8396   11.8028 C.2     1  UNL1        0.2303
      3 O          61.0103   86.8091   13.1940 O.2     1  UNL1       -0.2745
      4 C          60.6659   89.7536   12.7117 C.3     1  UNL1        0.0297
      5 C          61.9439   89.4024   12.0094 C.3     1  UNL1        0.1325
      6 C          63.1287   90.3173   12.1058 C.ar    1  UNL1        0.1462
      7 N          63.3963   91.3150   11.0183 N.ar    1  UNL1       -0.2114
      8 C          64.5811   92.2299   11.1147 C.ar    1  UNL1        0.1682
      9 N          64.8488   93.2276   10.0271 N.ar    1  UNL1       -0.2249
     10 C          66.0335   94.1425   10.1237 C.ar    1  UNL1        0.1006
     11 C          66.9506   94.0596   11.3078 C.ar    1  UNL1        0.0209
     12 C          66.6830   93.0619   12.3953 C.ar    1  UNL1        0.0094
     13 C          65.4982   92.1471   12.2988 C.ar    1  UNL1        0.0923
     14 C          65.2305   91.1493   13.3864 C.ar    1  UNL1        0.2685
     15 O          66.1476   91.0664   14.5705 O.2     1  UNL1       -0.2665
     16 N          64.0458   90.2344   13.2899 N.ar    1  UNL1       -0.2612
     17 C          63.7781   89.2367   14.3776 C.ar    1  UNL1        0.0680
     18 C          64.2117   87.8105   14.2103 C.ar    1  UNL1        0.0185
     19 C          63.9440   86.8127   15.2978 C.ar    1  UNL1        0.0129
     20 C          63.2427   87.2411   16.5526 C.ar    1  UNL1        0.0578
     21 CL         62.9750   86.2433   17.6402 Cl      1  UNL1       -0.0822
     22 C          62.8091   88.6673   16.7199 C.ar    1  UNL1        0.0129
     23 C          63.0768   89.6651   15.6324 C.ar    1  UNL1        0.0185
     24 C          62.5972   88.1667    9.8193 C.3     1  UNL1        0.0938
     25 C          62.2234   87.0968    8.8367 C.3     1  UNL1        0.0234
     26 C          60.8078   86.9833    8.3538 C.3     1  UNL1        0.0271
     27 C          60.4340   85.9134    7.3712 C.3     1  UNL1        0.1509
     28 S          61.4758   84.9569    6.8715 S.O2    1  UNL1       -0.0100
     29 O          62.1015   83.8244    6.1125 O.2     1  UNL1       -0.1730
     30 O          60.2775   84.4501    6.1250 O.2     1  UNL1       -0.1730
     31 C          62.8914   85.0704    7.3544 C.3     1  UNL1        0.1509
     32 C          63.2652   86.1403    8.3370 C.3     1  UNL1        0.0271
     33 C          61.6636   85.5734   11.0039 C.3     1  UNL1        0.1116
     34 C          62.5374   84.4502   11.4779 C.ar    1  UNL1       -0.0130
     35 C          62.9772   83.3854   10.5173 C.ar    1  UNL1       -0.0015
     36 C          63.8510   82.2621   10.9914 C.ar    1  UNL1        0.0293
     37 C          64.2851   82.2036   12.4260 C.ar    1  UNL1        0.1440
     38 F          65.1589   81.0804   12.9000 F       1  UNL1       -0.2042
     39 C          63.8453   83.2685   13.3866 C.ar    1  UNL1        0.0985
     40 C          62.9715   84.3917   12.9126 C.ar    1  UNL1        0.0023
     41 C          64.2793   83.2100   14.8212 C.3     1  UNL1        0.4207
     42 F          64.7134   83.1516   16.2559 F       1  UNL1       -0.1658
     43 F          63.0292   82.4573   15.1688 F       1  UNL1       -0.1658
     44 F          65.5293   83.9627   14.4737 F       1  UNL1       -0.1658
@<TRIPOS>BOND
     1     5     4    1
     2     5     6    1
     3     6     7   ar
     4     7     8   ar
     5     8     9   ar
     6     9    10   ar
     7    10    11   ar
     8    11    12   ar
     9    12    13   ar
    10    13    14   ar
    11    14    15    2
    12    14    16   ar
    13    16    17    1
    14    17    18   ar
    15    18    19   ar
    16    19    20   ar
    17    20    21    1
    18    20    22   ar
    19    22    23   ar
    20     5     1    1
    21     1    24    1
    22    24    25    1
    23    25    26    1
    24    26    27    1
    25    27    28    1
    26    28    29    2
    27    28    30    2
    28    28    31    1
    29    31    32    1
    30     1     2   am
    31     2     3    2
    32     2    33    1
    33    33    34    1
    34    34    35   ar
    35    35    36   ar
    36    36    37   ar
    37    37    38    1
    38    37    39   ar
    39    39    41    1
    40    41    42    1
    41    41    43    1
    42    41    44    1
    43    39    40   ar
    44    16     6   ar
    45    23    17   ar
    46    32    25    1
    47    40    34   ar
    48    13     8   ar
@<TRIPOS>MOLECULE
*****
 44 48 0 0 0
SMALL
GASTEIGER

@<TRIPOS>ATOM
      1 N          63.1831   89.6760   12.2894 N.am    1  UNL1       -0.2741
      2 C          63.4857   90.9849   11.6220 C.2     1  UNL1        0.2303
      3 O          62.6840   91.4232   10.4325 O.2     1  UNL1       -0.2745
      4 C          60.7153   89.3844   11.5312 C.3     1  UNL1        0.0297
      5 C          62.0788   88.8055   11.7672 C.3     1  UNL1        0.1325
      6 C          62.3381   87.3560   11.4809 C.ar    1  UNL1        0.1462
      7 N          63.1084   86.5238   12.4627 N.ar    1  UNL1       -0.2114
      8 C          63.3676   85.0743   12.1764 C.ar    1  UNL1        0.1682
      9 N          64.1379   84.2420   13.1582 N.ar    1  UNL1       -0.2249
     10 C          64.3972   82.7926   12.8719 C.ar    1  UNL1        0.1006
     11 C          63.8861   82.1755   11.6039 C.ar    1  UNL1        0.0209
     12 C          63.1158   83.0077   10.6221 C.ar    1  UNL1        0.0094
     13 C          62.8566   84.4571   10.9084 C.ar    1  UNL1        0.0923
     14 C          62.0862   85.2895    9.9266 C.ar    1  UNL1        0.2685
     15 O          61.5752   84.6724    8.6585 O.2     1  UNL1       -0.2665
     16 N          61.8270   86.7389   10.2129 N.ar    1  UNL1       -0.2612
     17 C          61.0567   87.5712    9.2311 C.ar    1  UNL1        0.0680
     18 C          61.4912   88.9761    8.9353 C.ar    1  UNL1        0.0185
     19 C          60.7210   89.8085    7.9536 C.ar    1  UNL1        0.0129
     20 C          59.5161   89.2359    7.2676 C.ar    1  UNL1        0.0578
     21 CL         58.7458   90.0683    6.2858 Cl      1  UNL1       -0.0822
     22 C          59.0816   87.8311    7.5634 C.ar    1  UNL1        0.0129
     23 C          59.8518   86.9987    8.5451 C.ar    1  UNL1        0.0185
     24 C          63.9848   89.2377   13.4790 C.3     1  UNL1        0.0938
     25 C          64.4444   90.2486   14.4875 C.3     1  UNL1        0.0234
     26 C          63.5299   90.6670   15.6004 C.3     1  UNL1        0.0271
     27 C          63.9895   91.6779   16.6088 C.3     1  UNL1        0.1509
     28 S          65.3636   92.2703   16.5043 S.O2    1  UNL1       -0.0100
     29 O          66.5650   93.1092   16.8250 O.2     1  UNL1       -0.1730
     30 O          64.8663   92.9801   17.7287 O.2     1  UNL1       -0.1730
     31 C          66.2780   91.8518   15.3914 C.3     1  UNL1        0.1509
     32 C          65.8184   90.8410   14.3830 C.3     1  UNL1        0.0271
     33 C          64.5900   91.8554   12.1443 C.3     1  UNL1        0.1116
     34 C          65.4047   92.6835   11.1954 C.ar    1  UNL1       -0.0130
     35 C          64.9755   94.0813   10.8610 C.ar    1  UNL1       -0.0015
     36 C          65.7903   94.9093    9.9120 C.ar    1  UNL1        0.0293
     37 C          67.0344   94.3395    9.2976 C.ar    1  UNL1        0.1440
     38 F          67.8492   95.1675    8.3487 F       1  UNL1       -0.2042
     39 C          67.4637   92.9417    9.6320 C.ar    1  UNL1        0.0985
     40 C          66.6489   92.1137   10.5809 C.ar    1  UNL1        0.0023
     41 C          68.7077   92.3719    9.0175 C.3     1  UNL1        0.4207
     42 F          69.9519   91.8021    8.4031 F       1  UNL1       -0.1658
     43 F          67.9389   91.1584    8.5862 F       1  UNL1       -0.1658
     44 F          69.4766   93.5855    9.4489 F       1  UNL1       -0.1658
@<TRIPOS>BOND
     1     5     4    1
     2     5     6    1
     3     6     7   ar
     4     7     8   ar
     5     8     9   ar
     6     9    10   ar
     7    10    11   ar
     8    11    12   ar
     9    12    13   ar
    10    13    14   ar
    11    14    15    2
    12    14    16   ar
    13    16    17    1
    14    17    18   ar
    15    18    19   ar
    16    19    20   ar
    17    20    21    1
    18    20    22   ar
    19    22    23   ar
    20     5     1    1
    21     1    24    1
    22    24    25    1
    23    25    26    1
    24    26    27    1
    25    27    28    1
    26    28    29    2
    27    28    30    2
    28    28    31    1
    29    31    32    1
    30     1     2   am
    31     2     3    2
    32     2    33    1
    33    33    34    1
    34    34    35   ar
    35    35    36   ar
    36    36    37   ar
    37    37    38    1
    38    37    39   ar
    39    39    41    1
    40    41    42    1
    41    41    43    1
    42    41    44    1
    43    39    40   ar
    44    16     6   ar
    45    23    17   ar
    46    32    25    1
    47    40    34   ar
    48    13     8   ar
@<TRIPOS>MOLECULE
*****
 44 48 0 0 0
SMALL
GASTEIGER

@<TRIPOS>ATOM
      1 N          62.6559   89.8419   11.2788 N.am    1  UNL1       -0.2741
      2 C          63.1091   91.2144   11.6802 C.2     1  UNL1        0.2303
      3 O          62.9003   91.6916   13.0868 O.2     1  UNL1       -0.2745
      4 C          60.6918   89.3531   12.9077 C.3     1  UNL1        0.0297
      5 C          61.9941   88.9467   12.2841 C.3     1  UNL1        0.1325
      6 C          62.6347   87.6451   12.6659 C.ar    1  UNL1        0.1462
      7 N          62.3183   86.3986   11.8938 N.ar    1  UNL1       -0.2114
      8 C          62.9589   85.0971   12.2755 C.ar    1  UNL1        0.1682
      9 N          62.6425   83.8506   11.5035 N.ar    1  UNL1       -0.2249
     10 C          63.2831   82.5491   11.8853 C.ar    1  UNL1        0.1006
     11 C          64.2400   82.4941   13.0391 C.ar    1  UNL1        0.0209
     12 C          64.5563   83.7406   13.8111 C.ar    1  UNL1        0.0094
     13 C          63.9158   85.0421   13.4294 C.ar    1  UNL1        0.0923
     14 C          64.2321   86.2887   14.2015 C.ar    1  UNL1        0.2685
     15 O          65.1890   86.2337   15.3553 O.2     1  UNL1       -0.2665
     16 N          63.5916   87.5901   13.8197 N.ar    1  UNL1       -0.2612
     17 C          63.9079   88.8367   14.5918 C.ar    1  UNL1        0.0680
     18 C          65.0672   89.6972   14.1846 C.ar    1  UNL1        0.0185
     19 C          65.3835   90.9437   14.9566 C.ar    1  UNL1        0.0129
     20 C          64.5406   91.3298   16.1358 C.ar    1  UNL1        0.0578
     21 CL         64.8570   92.5764   16.9078 Cl      1  UNL1       -0.0822
     22 C          63.3814   90.4694   16.5429 C.ar    1  UNL1        0.0129
     23 C          63.0650   89.2228   15.7709 C.ar    1  UNL1        0.0185
     24 C          62.8646   89.3646    9.8722 C.3     1  UNL1        0.0938
     25 C          61.8469   88.4739    9.2236 C.3     1  UNL1        0.0234
     26 C          60.4667   88.9908    8.9448 C.3     1  UNL1        0.0271
     27 C          59.4489   88.1000    8.2962 C.3     1  UNL1        0.1509
     28 S          59.8113   86.6923    7.9265 S.O2    1  UNL1       -0.0100
     29 O          59.6784   85.2955    7.3959 O.2     1  UNL1       -0.1730
     30 O          58.3849   86.7242    7.4634 O.2     1  UNL1       -0.1730
     31 C          61.1915   86.1753    8.2053 C.3     1  UNL1        0.1509
     32 C          62.2093   87.0661    8.8538 C.3     1  UNL1        0.0271
     33 C          63.7709   92.1096   10.6748 C.3     1  UNL1        0.1116
     34 C          65.2592   92.2942   10.7000 C.ar    1  UNL1       -0.0130
     35 C          65.9987   92.5995    9.4311 C.ar    1  UNL1       -0.0015
     36 C          67.4871   92.7841    9.4563 C.ar    1  UNL1        0.0293
     37 C          68.2360   92.6634   10.7503 C.ar    1  UNL1        0.1440
     38 F          69.7243   92.8481   10.7755 F       1  UNL1       -0.2042
     39 C          67.4966   92.3582   12.0192 C.ar    1  UNL1        0.0985
     40 C          66.0082   92.1735   11.9941 C.ar    1  UNL1        0.0023
     41 C          68.2455   92.2375   13.3132 C.3     1  UNL1        0.4207
     42 F          68.9944   92.1168   14.6073 F       1  UNL1       -0.1658
     43 F          67.3980   93.3244   13.9051 F       1  UNL1       -0.1658
     44 F          69.0930   91.1506   12.7214 F       1  UNL1       -0.1658
@<TRIPOS>BOND
     1     5     4    1
     2     5     6    1
     3     6     7   ar
     4     7     8   ar
     5     8     9   ar
     6     9    10   ar
     7    10    11   ar
     8    11    12   ar
     9    12    13   ar
    10    13    14   ar
    11    14    15    2
    12    14    16   ar
    13    16    17    1
    14    17    18   ar
    15    18    19   ar
    16    19    20   ar
    17    20    21    1
    18    20    22   ar
    19    22    23   ar
    20     5     1    1
    21     1    24    1
    22    24    25    1
    23    25    26    1
    24    26    27    1
    25    27    28    1
    26    28    29    2
    27    28    30    2
    28    28    31    1
    29    31    32    1
    30     1     2   am
    31     2     3    2
    32     2    33    1
    33    33    34    1
    34    34    35   ar
    35    35    36   ar
    36    36    37   ar
    37    37    38    1
    38    37    39   ar
    39    39    41    1
    40    41    42    1
    41    41    43    1
    42    41    44    1
    43    39    40   ar
    44    16     6   ar
    45    23    17   ar
    46    32    25    1
    47    40    34   ar
    48    13     8   ar
@<TRIPOS>MOLECULE
*****
 44 48 0 0 0
SMALL
GASTEIGER

@<TRIPOS>ATOM
      1 N          62.7214   87.9692   11.2727 N.am    1  UNL1       -0.2741
      2 C          63.0298   86.5631   11.6947 C.2     1  UNL1        0.2303
      3 O          63.0870   86.2129   13.1521 O.2     1  UNL1       -0.2745
      4 C          61.2103   88.9929   13.1216 C.3     1  UNL1        0.0297
      5 C          62.4702   89.0249   12.3082 C.3     1  UNL1        0.1325
      6 C          63.4788   90.1128   12.5302 C.ar    1  UNL1        0.1462
      7 N          63.7774   91.0936   11.4353 N.ar    1  UNL1       -0.2114
      8 C          64.7861   92.1815   11.6573 C.ar    1  UNL1        0.1682
      9 N          65.0846   93.1623   10.5624 N.ar    1  UNL1       -0.2249
     10 C          66.0932   94.2501   10.7845 C.ar    1  UNL1        0.1006
     11 C          66.8033   94.3570   12.1014 C.ar    1  UNL1        0.0209
     12 C          66.5048   93.3762   13.1963 C.ar    1  UNL1        0.0094
     13 C          65.4962   92.2884   12.9742 C.ar    1  UNL1        0.0923
     14 C          65.1976   91.3075   14.0692 C.ar    1  UNL1        0.2685
     15 O          65.9077   91.4145   15.3861 O.2     1  UNL1       -0.2665
     16 N          64.1889   90.2198   13.8471 N.ar    1  UNL1       -0.2612
     17 C          63.8903   89.2389   14.9420 C.ar    1  UNL1        0.0680
     18 C          63.0849   89.6665   16.1330 C.ar    1  UNL1        0.0185
     19 C          62.7863   88.6857   17.2279 C.ar    1  UNL1        0.0129
     20 C          63.2931   87.2773   17.1318 C.ar    1  UNL1        0.0578
     21 CL         62.9946   86.2964   18.2267 Cl      1  UNL1       -0.0822
     22 C          64.0986   86.8496   15.9409 C.ar    1  UNL1        0.0129
     23 C          64.3972   87.8304   14.8460 C.ar    1  UNL1        0.0185
     24 C          62.6642   88.3194    9.8153 C.3     1  UNL1        0.0938
     25 C          61.3919   88.1217    9.0458 C.3     1  UNL1        0.0234
     26 C          60.8828   86.7357    8.7816 C.3     1  UNL1        0.0271
     27 C          59.6105   86.5381    8.0120 C.3     1  UNL1        0.1509
     28 S          58.8473   87.7264    7.5068 S.O2    1  UNL1       -0.0100
     29 O          57.7783   88.5304    6.8278 O.2     1  UNL1       -0.1730
     30 O          57.9669   86.6196    7.0067 O.2     1  UNL1       -0.1730
     31 C          59.3564   89.1124    7.7710 C.3     1  UNL1        0.1509
     32 C          60.6287   89.3100    8.5405 C.3     1  UNL1        0.0271
     33 C          63.2811   85.5073   10.6592 C.3     1  UNL1        0.1116
     34 C          63.1915   84.0567   11.0301 C.ar    1  UNL1       -0.0130
     35 C          63.6914   83.0078   10.0814 C.ar    1  UNL1       -0.0015
     36 C          63.6018   81.5571   10.4524 C.ar    1  UNL1        0.0293
     37 C          63.0124   81.1554   11.7719 C.ar    1  UNL1        0.1440
     38 F          62.9229   79.7048   12.1428 F       1  UNL1       -0.2042
     39 C          62.5126   82.2043   12.7206 C.ar    1  UNL1        0.0985
     40 C          62.6022   83.6549   12.3497 C.ar    1  UNL1        0.0023
     41 C          61.9233   81.8026   14.0401 C.3     1  UNL1        0.4207
     42 F          61.3339   81.4009   15.3598 F       1  UNL1       -0.1658
     43 F          60.8330   81.0593   13.3269 F       1  UNL1       -0.1658
     44 F          63.0135   82.5459   14.7534 F       1  UNL1       -0.1658
@<TRIPOS>BOND
     1     5     4    1
     2     5     6    1
     3     6     7   ar
     4     7     8   ar
     5     8     9   ar
     6     9    10   ar
     7    10    11   ar
     8    11    12   ar
     9    12    13   ar
    10    13    14   ar
    11    14    15    2
    12    14    16   ar
    13    16    17    1
    14    17    18   ar
    15    18    19   ar
    16    19    20   ar
    17    20    21    1
    18    20    22   ar
    19    22    23   ar
    20     5     1    1
    21     1    24    1
    22    24    25    1
    23    25    26    1
    24    26    27    1
    25    27    28    1
    26    28    29    2
    27    28    30    2
    28    28    31    1
    29    31    32    1
    30     1     2   am
    31     2     3    2
    32     2    33    1
    33    33    34    1
    34    34    35   ar
    35    35    36   ar
    36    36    37   ar
    37    37    38    1
    38    37    39   ar
    39    39    41    1
    40    41    42    1
    41    41    43    1
    42    41    44    1
    43    39    40   ar
    44    16     6   ar
    45    23    17   ar
    46    32    25    1
    47    40    34   ar
    48    13     8   ar
@<TRIPOS>MOLECULE
*****
 44 48 0 0 0
SMALL
GASTEIGER

@<TRIPOS>ATOM
      1 N          61.7856   89.0129   10.3467 N.am    1  UNL1       -0.2741
      2 C          60.5603   89.4014    9.5734 C.2     1  UNL1        0.2303
      3 O          59.6265   90.4402   10.1200 O.2     1  UNL1       -0.2745
      4 C          61.2108   89.3689   12.8552 C.3     1  UNL1        0.0297
      5 C          62.0770   89.6633   11.6666 C.3     1  UNL1        0.1325
      6 C          63.2347   90.6081   11.7978 C.ar    1  UNL1        0.1462
      7 N          63.5091   91.6126   10.7181 N.ar    1  UNL1       -0.2114
      8 C          64.6668   92.5574   10.8493 C.ar    1  UNL1        0.1682
      9 N          64.9412   93.5618    9.7697 N.ar    1  UNL1       -0.2249
     10 C          66.0988   94.5066    9.9009 C.ar    1  UNL1        0.1006
     11 C          66.9820   94.4469   11.1118 C.ar    1  UNL1        0.0209
     12 C          66.7076   93.4424   12.1915 C.ar    1  UNL1        0.0094
     13 C          65.5500   92.4977   12.0603 C.ar    1  UNL1        0.0923
     14 C          65.2756   91.4932   13.1400 C.ar    1  UNL1        0.2685
     15 O          66.1588   91.4335   14.3509 O.2     1  UNL1       -0.2665
     16 N          64.1179   90.5484   13.0087 N.ar    1  UNL1       -0.2612
     17 C          63.8435   89.5439   14.0884 C.ar    1  UNL1        0.0680
     18 C          64.2585   88.1141   13.9056 C.ar    1  UNL1        0.0185
     19 C          63.9840   87.1096   14.9852 C.ar    1  UNL1        0.0129
     20 C          63.2946   87.5349   16.2477 C.ar    1  UNL1        0.0578
     21 CL         63.0202   86.5304   17.3274 Cl      1  UNL1       -0.0822
     22 C          62.8796   88.9647   16.4305 C.ar    1  UNL1        0.0129
     23 C          63.1541   89.9692   15.3508 C.ar    1  UNL1        0.0185
     24 C          62.7194   87.9741    9.8001 C.3     1  UNL1        0.0938
     25 C          62.7238   86.5904   10.3791 C.3     1  UNL1        0.0234
     26 C          63.0817   85.4172    9.5157 C.3     1  UNL1        0.0271
     27 C          63.0861   84.0335   10.0948 C.3     1  UNL1        0.1509
     28 S          62.7326   83.8229   11.5372 S.O2    1  UNL1       -0.0100
     29 O          62.4718   83.1202   12.8365 O.2     1  UNL1       -0.1730
     30 O          63.0000   82.4056   11.1250 O.2     1  UNL1       -0.1730
     31 C          62.3746   84.9961   12.4006 C.3     1  UNL1        0.1509
     32 C          62.3702   86.3798   11.8215 C.3     1  UNL1        0.0271
     33 C          60.2690   88.7511    8.2535 C.3     1  UNL1        0.1116
     34 C          59.6998   89.5619    7.1273 C.ar    1  UNL1       -0.0130
     35 C          58.2147   89.6306    6.9283 C.ar    1  UNL1       -0.0015
     36 C          57.6456   90.4415    5.8019 C.ar    1  UNL1        0.0293
     37 C          58.5616   91.1838    4.8747 C.ar    1  UNL1        0.1440
     38 F          57.9925   91.9947    3.7484 F       1  UNL1       -0.2042
     39 C          60.0468   91.1152    5.0737 C.ar    1  UNL1        0.0985
     40 C          60.6159   90.3043    6.1999 C.ar    1  UNL1        0.0023
     41 C          60.9628   91.8574    4.1464 C.3     1  UNL1        0.4207
     42 F          61.8790   92.5997    3.2191 F       1  UNL1       -0.1658
     43 F          59.9852   92.9937    4.0902 F       1  UNL1       -0.1658
     44 F          61.9404   90.7212    4.2026 F       1  UNL1       -0.1658
@<TRIPOS>BOND
     1     5     4    1
     2     5     6    1
     3     6     7   ar
     4     7     8   ar
     5     8     9   ar
     6     9    10   ar
     7    10    11   ar
     8    11    12   ar
     9    12    13   ar
    10    13    14   ar
    11    14    15    2
    12    14    16   ar
    13    16    17    1
    14    17    18   ar
    15    18    19   ar
    16    19    20   ar
    17    20    21    1
    18    20    22   ar
    19    22    23   ar
    20     5     1    1
    21     1    24    1
    22    24    25    1
    23    25    26    1
    24    26    27    1
    25    27    28    1
    26    28    29    2
    27    28    30    2
    28    28    31    1
    29    31    32    1
    30     1     2   am
    31     2     3    2
    32     2    33    1
    33    33    34    1
    34    34    35   ar
    35    35    36   ar
    36    36    37   ar
    37    37    38    1
    38    37    39   ar
    39    39    41    1
    40    41    42    1
    41    41    43    1
    42    41    44    1
    43    39    40   ar
    44    16     6   ar
    45    23    17   ar
    46    32    25    1
    47    40    34   ar
    48    13     8   ar
