@<TRIPOS>MOLECULE
*****
 39 42 0 0 0
SMALL
GASTEIGER

@<TRIPOS>ATOM
      1 C          63.7922   89.9717   15.4946 C.3     1  UNL1        0.0718
      2 C          63.1092   89.3508   16.6770 C.3     1  UNL1        0.0201
      3 C          63.0190   87.8579   16.7924 C.3     1  UNL1        0.0108
      4 C          63.6117   86.9860   15.7253 C.3     1  UNL1        0.0766
      5 C          64.2946   87.6070   14.5429 C.3     1  UNL1        0.0108
      6 C          64.3848   89.0998   14.4276 C.3     1  UNL1        0.0201
      7 C          63.5215   85.4932   15.8407 C.2     1  UNL1        0.2222
      8 O          64.3902   84.7629   16.8215 O.2     1  UNL1       -0.2751
      9 N          62.5626   84.7307   14.9752 N.am    1  UNL1       -0.3004
     10 H          61.9924   85.2100   14.3314 H       1  UNL1        0.1497
     11 C          62.4723   83.2378   15.0905 C.3     1  UNL1        0.1163
     12 C          62.6149   82.3811   13.8676 C.ar    1  UNL1        0.0013
     13 C          62.3684   80.9041   13.9537 C.ar    1  UNL1       -0.0027
     14 C          62.5110   80.0472   12.7308 C.ar    1  UNL1       -0.0003
     15 C          62.9001   80.6676   11.4217 C.ar    1  UNL1       -0.0001
     16 C          63.1467   82.1447   11.3355 C.ar    1  UNL1        0.0036
     17 C          63.0041   83.0014   12.5585 C.ar    1  UNL1        0.0691
     18 C          63.2506   84.4785   12.4723 C.3     1  UNL1        0.4183
     19 F          63.4971   85.9557   12.3861 F       1  UNL1       -0.1659
     20 F          64.6572   84.2716   12.9503 F       1  UNL1       -0.1659
     21 F          61.8440   84.6854   11.9943 F       1  UNL1       -0.1659
     22 N          63.8824   91.4645   15.3792 N.pl3   1  UNL1       -0.3045
     23 H          63.1099   92.0246   15.6217 H       1  UNL1        0.1496
     24 C          67.6385   92.7419   15.2799 C.ar    1  UNL1        0.2217
     25 N          66.3713   92.1024   15.7647 N.ar    1  UNL1       -0.1810
     26 C          65.1497   92.1041   14.8943 C.ar    1  UNL1        0.2216
     27 N          65.1953   92.7453   13.5391 N.ar    1  UNL1       -0.1808
     28 C          66.4625   93.3848   13.0543 C.ar    1  UNL1        0.2249
     29 N          67.6841   93.3831   13.9247 N.ar    1  UNL1       -0.1808
     30 N          66.5082   94.0260   11.6989 N.pl3   1  UNL1       -0.2752
     31 C          66.0989   95.4595   11.5333 C.3     1  UNL1        0.1109
     32 C          66.1446   96.1008   10.1780 C.3     1  UNL1        0.0939
     33 N          66.5995   95.3085    8.9884 N.3     1  UNL1       -0.2686
     34 C          66.6452   95.9496    7.6331 C.3     1  UNL1        0.0897
     35 C          67.0088   93.8749    9.1541 C.3     1  UNL1        0.0939
     36 C          66.9631   93.2337   10.5093 C.3     1  UNL1        0.1109
     37 C          69.7786   93.9261   16.1562 C.3     1  UNL1        0.1108
     38 N          68.8602   92.7402   16.1503 N.pl3   1  UNL1       -0.3012
     39 H          69.0592   91.9606   16.7178 H       1  UNL1        0.1497
@<TRIPOS>BOND
     1    37    38    1
     2    38    24    1
     3    24    25   ar
     4    25    26   ar
     5    26    22    1
     6    22     1    1
     7     1     2    1
     8     2     3    1
     9     3     4    1
    10     4     7    1
    11     7     8    2
    12     7     9   am
    13     9    11    1
    14    11    12    1
    15    12    13   ar
    16    13    14   ar
    17    14    15   ar
    18    15    16   ar
    19    16    17   ar
    20    17    18    1
    21    18    19    1
    22    18    20    1
    23    18    21    1
    24     4     5    1
    25     5     6    1
    26    26    27   ar
    27    27    28   ar
    28    28    30    1
    29    30    31    1
    30    31    32    1
    31    32    33    1
    32    33    34    1
    33    33    35    1
    34    35    36    1
    35    28    29   ar
    36    29    24   ar
    37     6     1    1
    38    36    30    1
    39    17    12   ar
    40    38    39    1
    41    22    23    1
    42     9    10    1
@<TRIPOS>MOLECULE
*****
 39 42 0 0 0
SMALL
GASTEIGER

@<TRIPOS>ATOM
      1 C          63.9066   89.9984   15.6910 C.3     1  UNL1        0.0718
      2 C          64.4639   89.2688   14.5048 C.3     1  UNL1        0.0201
      3 C          64.3071   87.7809   14.3979 C.3     1  UNL1        0.0108
      4 C          63.5928   87.0226   15.4772 C.3     1  UNL1        0.0766
      5 C          63.0355   87.7522   16.6634 C.3     1  UNL1        0.0108
      6 C          63.1924   89.2401   16.7702 C.3     1  UNL1        0.0201
      7 C          63.4359   85.5346   15.3703 C.2     1  UNL1        0.2222
      8 O          62.6927   84.7806   16.4328 O.2     1  UNL1       -0.2751
      9 N          64.0223   84.8007   14.2008 N.am    1  UNL1       -0.3004
     10 H          64.5102   85.2956   13.5035 H       1  UNL1        0.1497
     11 C          63.8654   83.3128   14.0940 C.3     1  UNL1        0.1163
     12 C          63.7692   82.6638   12.7451 C.ar    1  UNL1        0.0013
     13 C          64.4738   83.2712   11.5685 C.ar    1  UNL1       -0.0027
     14 C          64.3775   82.6222   10.2196 C.ar    1  UNL1       -0.0003
     15 C          63.5766   81.3657   10.0473 C.ar    1  UNL1       -0.0001
     16 C          62.8719   80.7582   11.2240 C.ar    1  UNL1        0.0036
     17 C          62.9682   81.4072   12.5728 C.ar    1  UNL1        0.0691
     18 C          62.2636   80.7998   13.7494 C.3     1  UNL1        0.4183
     19 F          61.5588   80.1923   14.9260 F       1  UNL1       -0.1659
     20 F          63.5263   80.0904   14.1394 F       1  UNL1       -0.1659
     21 F          61.0008   81.5091   13.3594 F       1  UNL1       -0.1659
     22 N          64.0635   91.4864   15.7979 N.pl3   1  UNL1       -0.3045
     23 H          63.3581   92.0265   16.2222 H       1  UNL1        0.1496
     24 C          67.7554   92.9247   15.5721 C.ar    1  UNL1        0.2217
     25 N          66.5239   92.2597   16.1117 N.ar    1  UNL1       -0.1810
     26 C          65.2950   92.1514   15.2583 C.ar    1  UNL1        0.2216
     27 N          65.2977   92.7079   13.8654 N.ar    1  UNL1       -0.1808
     28 C          66.5293   93.3729   13.3259 C.ar    1  UNL1        0.2249
     29 N          67.7581   93.4812   14.1792 N.ar    1  UNL1       -0.1808
     30 N          66.5320   93.9295   11.9329 N.pl3   1  UNL1       -0.2752
     31 C          66.1372   95.3568   11.6948 C.3     1  UNL1        0.1109
     32 C          66.1399   95.9134   10.3019 C.3     1  UNL1        0.0939
     33 N          66.5375   95.0426    9.1471 N.3     1  UNL1       -0.2686
     34 C          66.5403   95.5991    7.7542 C.3     1  UNL1        0.0897
     35 C          66.9324   93.6152    9.3852 C.3     1  UNL1        0.0939
     36 C          66.9296   93.0587   10.7781 C.3     1  UNL1        0.1109
     37 C          69.9820   94.1232   16.1686 C.3     1  UNL1        0.1108
     38 N          68.9842   93.0330   16.4255 N.pl3   1  UNL1       -0.3012
     39 H          69.1359   92.3886   17.1542 H       1  UNL1        0.1497
@<TRIPOS>BOND
     1    37    38    1
     2    38    24    1
     3    24    25   ar
     4    25    26   ar
     5    26    22    1
     6    22     1    1
     7     1     2    1
     8     2     3    1
     9     3     4    1
    10     4     7    1
    11     7     8    2
    12     7     9   am
    13     9    11    1
    14    11    12    1
    15    12    13   ar
    16    13    14   ar
    17    14    15   ar
    18    15    16   ar
    19    16    17   ar
    20    17    18    1
    21    18    19    1
    22    18    20    1
    23    18    21    1
    24     4     5    1
    25     5     6    1
    26    26    27   ar
    27    27    28   ar
    28    28    30    1
    29    30    31    1
    30    31    32    1
    31    32    33    1
    32    33    34    1
    33    33    35    1
    34    35    36    1
    35    28    29   ar
    36    29    24   ar
    37     6     1    1
    38    36    30    1
    39    17    12   ar
    40    38    39    1
    41    22    23    1
    42     9    10    1
@<TRIPOS>MOLECULE
*****
 39 42 0 0 0
SMALL
GASTEIGER

@<TRIPOS>ATOM
      1 C          63.4823   89.3974   13.4091 C.3     1  UNL1        0.0718
      2 C          62.9626   88.4204   12.3965 C.3     1  UNL1        0.0201
      3 C          63.1592   86.9480   12.6051 C.3     1  UNL1        0.0108
      4 C          63.8755   86.4527   13.8265 C.3     1  UNL1        0.0766
      5 C          64.3953   87.4297   14.8390 C.3     1  UNL1        0.0108
      6 C          64.1987   88.9020   14.6304 C.3     1  UNL1        0.0201
      7 C          64.0721   84.9804   14.0351 C.2     1  UNL1        0.2222
      8 O          65.3336   84.4747   14.6699 O.2     1  UNL1       -0.2751
      9 N          63.0072   84.0137   13.6090 N.am    1  UNL1       -0.3004
     10 H          62.1792   84.3456   13.1924 H       1  UNL1        0.1497
     11 C          63.2038   82.5413   13.8176 C.3     1  UNL1        0.1163
     12 C          63.0712   81.5956   12.6609 C.ar    1  UNL1        0.0013
     13 C          62.7637   80.1483   12.9070 C.ar    1  UNL1       -0.0027
     14 C          62.6311   79.2025   11.7503 C.ar    1  UNL1       -0.0003
     15 C          62.8059   79.7041   10.3475 C.ar    1  UNL1       -0.0001
     16 C          63.1134   81.1515   10.1015 C.ar    1  UNL1        0.0036
     17 C          63.2460   82.0972   11.2582 C.ar    1  UNL1        0.0691
     18 C          63.5535   83.5446   11.0121 C.3     1  UNL1        0.4183
     19 F          63.8609   84.9920   10.7659 F       1  UNL1       -0.1659
     20 F          65.0195   83.2552   11.1421 F       1  UNL1       -0.1659
     21 F          62.0874   83.8339   10.8821 F       1  UNL1       -0.1659
     22 N          63.2857   90.8697   13.2005 N.pl3   1  UNL1       -0.3045
     23 H          62.3867   91.2247   13.0135 H       1  UNL1        0.1496
     24 C          66.4238   92.8397   14.6224 C.ar    1  UNL1        0.2217
     25 N          65.2506   91.9082   14.5462 N.ar    1  UNL1       -0.1810
     26 C          64.4590   91.8013   13.2766 C.ar    1  UNL1        0.2216
     27 N          64.8407   92.6259   12.0832 N.ar    1  UNL1       -0.1808
     28 C          66.0139   93.5573   12.1593 C.ar    1  UNL1        0.2249
     29 N          66.8055   93.6642   13.4290 N.ar    1  UNL1       -0.1808
     30 N          66.3956   94.3820   10.9658 N.pl3   1  UNL1       -0.2752
     31 C          67.3313   93.8223    9.9358 C.3     1  UNL1        0.1109
     32 C          67.7130   94.6470    8.7423 C.3     1  UNL1        0.0939
     33 N          67.1589   96.0313    8.5789 N.3     1  UNL1       -0.2686
     34 C          67.5406   96.8559    7.3855 C.3     1  UNL1        0.0897
     35 C          66.2232   96.5909    9.6091 C.3     1  UNL1        0.0939
     36 C          65.8415   95.7663   10.8025 C.3     1  UNL1        0.1109
     37 C          68.6531   92.5197   15.9177 C.3     1  UNL1        0.1108
     38 N          67.2154   92.9466   15.8921 N.pl3   1  UNL1       -0.3012
     39 H          66.7913   93.2969   16.7085 H       1  UNL1        0.1497
@<TRIPOS>BOND
     1    37    38    1
     2    38    24    1
     3    24    25   ar
     4    25    26   ar
     5    26    22    1
     6    22     1    1
     7     1     2    1
     8     2     3    1
     9     3     4    1
    10     4     7    1
    11     7     8    2
    12     7     9   am
    13     9    11    1
    14    11    12    1
    15    12    13   ar
    16    13    14   ar
    17    14    15   ar
    18    15    16   ar
    19    16    17   ar
    20    17    18    1
    21    18    19    1
    22    18    20    1
    23    18    21    1
    24     4     5    1
    25     5     6    1
    26    26    27   ar
    27    27    28   ar
    28    28    30    1
    29    30    31    1
    30    31    32    1
    31    32    33    1
    32    33    34    1
    33    33    35    1
    34    35    36    1
    35    28    29   ar
    36    29    24   ar
    37     6     1    1
    38    36    30    1
    39    17    12   ar
    40    38    39    1
    41    22    23    1
    42     9    10    1
@<TRIPOS>MOLECULE
*****
 39 42 0 0 0
SMALL
GASTEIGER

@<TRIPOS>ATOM
      1 C          63.5079   87.4234   15.7261 C.3     1  UNL1        0.0718
      2 C          64.3845   87.5688   14.5175 C.3     1  UNL1        0.0201
      3 C          64.8600   88.9273   14.0949 C.3     1  UNL1        0.0108
      4 C          64.4588   90.1403   14.8809 C.3     1  UNL1        0.0766
      5 C          63.5823   89.9949   16.0894 C.3     1  UNL1        0.0108
      6 C          63.1068   88.6364   16.5120 C.3     1  UNL1        0.0201
      7 C          64.9343   91.4988   14.4584 C.2     1  UNL1        0.2222
      8 O          65.0833   92.5911   15.4754 O.2     1  UNL1       -0.2751
      9 N          65.2607   91.7648   13.0186 N.am    1  UNL1       -0.3004
     10 H          65.1629   91.0478   12.3511 H       1  UNL1        0.1497
     11 C          65.7362   93.1232   12.5961 C.3     1  UNL1        0.1163
     12 C          66.6149   93.2684   11.3891 C.ar    1  UNL1        0.0013
     13 C          67.4721   92.1212   10.9432 C.ar    1  UNL1       -0.0027
     14 C          68.3509   92.2663    9.7362 C.ar    1  UNL1       -0.0003
     15 C          68.3723   93.5587    8.9751 C.ar    1  UNL1       -0.0001
     16 C          67.5150   94.7060    9.4211 C.ar    1  UNL1        0.0036
     17 C          66.6363   94.5608   10.6281 C.ar    1  UNL1        0.0691
     18 C          65.7790   95.7081   11.0740 C.3     1  UNL1        0.4183
     19 F          64.9217   96.8554   11.5199 F       1  UNL1       -0.1659
     20 F          64.7756   95.3714   10.0110 F       1  UNL1       -0.1659
     21 F          66.7824   96.0447   12.1369 F       1  UNL1       -0.1659
     22 N          63.0324   86.0650   16.1486 N.pl3   1  UNL1       -0.3045
     23 H          62.8497   85.8808   17.0983 H       1  UNL1        0.1496
     24 C          62.5010   82.4796   14.5322 C.ar    1  UNL1        0.2217
     25 N          62.6981   83.5574   15.5566 N.ar    1  UNL1       -0.1810
     26 C          62.8353   84.9871   15.1241 C.ar    1  UNL1        0.2216
     27 N          62.7754   85.3390   13.6673 N.ar    1  UNL1       -0.1808
     28 C          62.5783   84.2612   12.6429 C.ar    1  UNL1        0.2249
     29 N          62.4411   82.8315   13.0754 N.ar    1  UNL1       -0.1808
     30 N          62.5184   84.6131   11.1859 N.pl3   1  UNL1       -0.2752
     31 C          61.5523   85.6550   10.7051 C.3     1  UNL1        0.1109
     32 C          61.4924   86.0069    9.2481 C.3     1  UNL1        0.0939
     33 N          62.3986   85.3169    8.2721 N.3     1  UNL1       -0.2686
     34 C          62.3387   85.6687    6.8152 C.3     1  UNL1        0.0897
     35 C          63.3647   84.2749    8.7529 C.3     1  UNL1        0.0939
     36 C          63.4245   83.9231   10.2098 C.3     1  UNL1        0.1109
     37 C          62.4742   79.9468   13.9543 C.3     1  UNL1        0.1108
     38 N          62.3638   81.0498   14.9647 N.pl3   1  UNL1       -0.3012
     39 H          62.2013   80.8355   15.9117 H       1  UNL1        0.1497
@<TRIPOS>BOND
     1    37    38    1
     2    38    24    1
     3    24    25   ar
     4    25    26   ar
     5    26    22    1
     6    22     1    1
     7     1     2    1
     8     2     3    1
     9     3     4    1
    10     4     7    1
    11     7     8    2
    12     7     9   am
    13     9    11    1
    14    11    12    1
    15    12    13   ar
    16    13    14   ar
    17    14    15   ar
    18    15    16   ar
    19    16    17   ar
    20    17    18    1
    21    18    19    1
    22    18    20    1
    23    18    21    1
    24     4     5    1
    25     5     6    1
    26    26    27   ar
    27    27    28   ar
    28    28    30    1
    29    30    31    1
    30    31    32    1
    31    32    33    1
    32    33    34    1
    33    33    35    1
    34    35    36    1
    35    28    29   ar
    36    29    24   ar
    37     6     1    1
    38    36    30    1
    39    17    12   ar
    40    38    39    1
    41    22    23    1
    42     9    10    1
@<TRIPOS>MOLECULE
*****
 39 42 0 0 0
SMALL
GASTEIGER

@<TRIPOS>ATOM
      1 C          61.9385   93.2083    2.2560 C.3     1  UNL1        0.0718
      2 C          62.5433   92.0212    2.9453 C.3     1  UNL1        0.0201
      3 C          61.7324   91.2321    3.9299 C.3     1  UNL1        0.0108
      4 C          60.3166   91.6300    4.2253 C.3     1  UNL1        0.0766
      5 C          59.7118   92.8171    3.5361 C.3     1  UNL1        0.0108
      6 C          60.5227   93.6062    2.5514 C.3     1  UNL1        0.0201
      7 C          59.5056   90.8409    5.2100 C.2     1  UNL1        0.2222
      8 O          58.0084   90.9305    5.1913 O.2     1  UNL1       -0.2751
      9 N          60.1919   89.9620    6.2134 N.am    1  UNL1       -0.3004
     10 H          61.1746   89.9032    6.2256 H       1  UNL1        0.1497
     11 C          59.3809   89.1729    7.1981 C.3     1  UNL1        0.1163
     12 C          59.9229   88.9027    8.5704 C.ar    1  UNL1        0.0013
     13 C          60.1324   90.0359    9.5305 C.ar    1  UNL1       -0.0027
     14 C          60.6744   89.7657   10.9028 C.ar    1  UNL1       -0.0003
     15 C          61.0068   88.3623   11.3150 C.ar    1  UNL1       -0.0001
     16 C          60.7972   87.2290   10.3548 C.ar    1  UNL1        0.0036
     17 C          60.2553   87.4992    8.9825 C.ar    1  UNL1        0.0691
     18 C          60.0457   86.3660    8.0224 C.3     1  UNL1        0.4183
     19 F          59.8362   85.2327    7.0623 F       1  UNL1       -0.1659
     20 F          61.5304   86.2335    7.8549 F       1  UNL1       -0.1659
     21 F          58.5611   86.4986    8.1900 F       1  UNL1       -0.1659
     22 N          62.7494   93.9975    1.2713 N.pl3   1  UNL1       -0.3045
     23 H          63.4340   94.6286    1.5911 H       1  UNL1        0.1496
     24 C          63.4329   93.3179   -2.5785 C.ar    1  UNL1        0.2217
     25 N          63.6650   93.4904   -1.1067 N.ar    1  UNL1       -0.1810
     26 C          62.5173   93.8250   -0.2006 C.ar    1  UNL1        0.2216
     27 N          61.1376   93.9871   -0.7664 N.ar    1  UNL1       -0.1808
     28 C          60.9056   93.8146   -2.2382 C.ar    1  UNL1        0.2249
     29 N          62.0532   93.4800   -3.1443 N.ar    1  UNL1       -0.1808
     30 N          59.5258   93.9767   -2.8040 N.pl3   1  UNL1       -0.2752
     31 C          58.6305   92.7823   -2.9512 C.3     1  UNL1        0.1109
     32 C          57.2507   92.9444   -3.5170 C.3     1  UNL1        0.0939
     33 N          56.7664   94.3010   -3.9356 N.3     1  UNL1       -0.2686
     34 C          55.3867   94.4631   -4.5014 C.3     1  UNL1        0.0897
     35 C          57.6618   95.4954   -3.7884 C.3     1  UNL1        0.0939
     36 C          59.0415   95.3333   -3.2226 C.3     1  UNL1        0.1109
     37 C          64.3218   92.3559   -4.8222 C.3     1  UNL1        0.1108
     38 N          64.5805   92.9834   -3.4846 N.pl3   1  UNL1       -0.3012
     39 H          65.5036   93.1756   -3.2014 H       1  UNL1        0.1497
@<TRIPOS>BOND
     1    37    38    1
     2    38    24    1
     3    24    25   ar
     4    25    26   ar
     5    26    22    1
     6    22     1    1
     7     1     2    1
     8     2     3    1
     9     3     4    1
    10     4     7    1
    11     7     8    2
    12     7     9   am
    13     9    11    1
    14    11    12    1
    15    12    13   ar
    16    13    14   ar
    17    14    15   ar
    18    15    16   ar
    19    16    17   ar
    20    17    18    1
    21    18    19    1
    22    18    20    1
    23    18    21    1
    24     4     5    1
    25     5     6    1
    26    26    27   ar
    27    27    28   ar
    28    28    30    1
    29    30    31    1
    30    31    32    1
    31    32    33    1
    32    33    34    1
    33    33    35    1
    34    35    36    1
    35    28    29   ar
    36    29    24   ar
    37     6     1    1
    38    36    30    1
    39    17    12   ar
    40    38    39    1
    41    22    23    1
    42     9    10    1
@<TRIPOS>MOLECULE
*****
 39 42 0 0 0
SMALL
GASTEIGER

@<TRIPOS>ATOM
      1 C          61.5832   93.0865    2.2686 C.3     1  UNL1        0.0718
      2 C          62.2842   92.0038    3.0345 C.3     1  UNL1        0.0201
      3 C          61.5482   91.2368    4.0928 C.3     1  UNL1        0.0108
      4 C          60.1112   91.5524    4.3852 C.3     1  UNL1        0.0766
      5 C          59.4102   92.6351    3.6194 C.3     1  UNL1        0.0108
      6 C          60.1462   93.4021    2.5611 C.3     1  UNL1        0.0201
      7 C          59.3752   90.7854    5.4435 C.2     1  UNL1        0.2222
      8 O          57.8845   90.9070    5.5580 O.2     1  UNL1       -0.2751
      9 N          60.1299   89.8968    6.3874 N.am    1  UNL1       -0.3004
     10 H          61.1083   89.8171    6.3123 H       1  UNL1        0.1497
     11 C          59.3939   89.1298    7.4457 C.3     1  UNL1        0.1163
     12 C          60.0744   88.7961    8.7401 C.ar    1  UNL1        0.0013
     13 C          60.3708   89.8806    9.7330 C.ar    1  UNL1       -0.0027
     14 C          61.0513   89.5469   11.0275 C.ar    1  UNL1       -0.0003
     15 C          61.4355   88.1286   11.3290 C.ar    1  UNL1       -0.0001
     16 C          61.1391   87.0440   10.3360 C.ar    1  UNL1        0.0036
     17 C          60.4586   87.3778    9.0416 C.ar    1  UNL1        0.0691
     18 C          60.1622   86.2933    8.0487 C.3     1  UNL1        0.4183
     19 F          59.8659   85.2087    7.0557 F       1  UNL1       -0.1659
     20 F          58.6926   86.4787    8.2848 F       1  UNL1       -0.1659
     21 F          61.6319   86.1078    7.8126 F       1  UNL1       -0.1659
     22 N          62.3192   93.8535    1.2103 N.pl3   1  UNL1       -0.3045
     23 H          63.0903   94.4143    1.4554 H       1  UNL1        0.1496
     24 C          59.9838   93.5490   -1.9840 C.ar    1  UNL1        0.2217
     25 N          60.4229   93.6365   -0.5524 N.ar    1  UNL1       -0.1810
     26 C          61.8801   93.7661   -0.2214 C.ar    1  UNL1        0.2216
     27 N          62.8984   93.8082   -1.3220 N.ar    1  UNL1       -0.1808
     28 C          62.4593   93.7208   -2.7536 C.ar    1  UNL1        0.2249
     29 N          61.0021   93.5912   -3.0846 N.ar    1  UNL1       -0.1808
     30 N          63.4776   93.7629   -3.8543 N.pl3   1  UNL1       -0.2752
     31 C          64.2651   92.5326   -4.1950 C.3     1  UNL1        0.1109
     32 C          65.2833   92.5748   -5.2957 C.3     1  UNL1        0.0939
     33 N          65.5141   93.8473   -6.0556 N.3     1  UNL1       -0.2686
     34 C          66.5322   93.8895   -7.1562 C.3     1  UNL1        0.0897
     35 C          64.7265   95.0777   -5.7148 C.3     1  UNL1        0.0939
     36 C          63.7083   95.0355   -4.6142 C.3     1  UNL1        0.1109
     37 C          57.5964   92.7416   -1.3531 C.3     1  UNL1        0.1108
     38 N          58.5266   93.4195   -2.3150 N.pl3   1  UNL1       -0.3012
     39 H          58.1806   93.7793   -3.1636 H       1  UNL1        0.1497
@<TRIPOS>BOND
     1    37    38    1
     2    38    24    1
     3    24    25   ar
     4    25    26   ar
     5    26    22    1
     6    22     1    1
     7     1     2    1
     8     2     3    1
     9     3     4    1
    10     4     7    1
    11     7     8    2
    12     7     9   am
    13     9    11    1
    14    11    12    1
    15    12    13   ar
    16    13    14   ar
    17    14    15   ar
    18    15    16   ar
    19    16    17   ar
    20    17    18    1
    21    18    19    1
    22    18    20    1
    23    18    21    1
    24     4     5    1
    25     5     6    1
    26    26    27   ar
    27    27    28   ar
    28    28    30    1
    29    30    31    1
    30    31    32    1
    31    32    33    1
    32    33    34    1
    33    33    35    1
    34    35    36    1
    35    28    29   ar
    36    29    24   ar
    37     6     1    1
    38    36    30    1
    39    17    12   ar
    40    38    39    1
    41    22    23    1
    42     9    10    1
@<TRIPOS>MOLECULE
*****
 39 42 0 0 0
SMALL
GASTEIGER

@<TRIPOS>ATOM
      1 C          59.1321   89.8673    6.1321 C.3     1  UNL1        0.0718
      2 C          57.9279   90.6293    5.6637 C.3     1  UNL1        0.0201
      3 C          58.0800   91.7200    4.6453 C.3     1  UNL1        0.0108
      4 C          59.4362   92.0487    4.0952 C.3     1  UNL1        0.0766
      5 C          60.6404   91.2867    4.5635 C.3     1  UNL1        0.0108
      6 C          60.4883   90.1960    5.5820 C.3     1  UNL1        0.0201
      7 C          59.5883   93.1394    3.0767 C.2     1  UNL1        0.2222
      8 O          60.0276   94.5085    3.5040 O.2     1  UNL1       -0.2751
      9 N          59.3011   92.8609    1.6310 N.am    1  UNL1       -0.3004
     10 H          59.0128   91.9623    1.3506 H       1  UNL1        0.1497
     11 C          59.4532   93.9517    0.6126 C.3     1  UNL1        0.1163
     12 C          60.3722   93.7623   -0.5576 C.ar    1  UNL1        0.0013
     13 C          59.8292   93.8202   -1.9547 C.ar    1  UNL1       -0.0027
     14 C          60.7483   93.6308   -3.1250 C.ar    1  UNL1       -0.0003
     15 C          62.2103   93.3835   -2.8982 C.ar    1  UNL1       -0.0001
     16 C          62.7532   93.3255   -1.5010 C.ar    1  UNL1        0.0036
     17 C          61.8342   93.5149   -0.3308 C.ar    1  UNL1        0.0691
     18 C          62.3771   93.4570    1.0662 C.3     1  UNL1        0.4183
     19 F          62.9201   93.3990    2.4634 F       1  UNL1       -0.1659
     20 F          62.5472   94.9473    1.0619 F       1  UNL1       -0.1659
     21 F          62.2070   91.9667    1.0705 F       1  UNL1       -0.1659
     22 N          58.9800   88.7766    7.1505 N.pl3   1  UNL1       -0.3045
     23 H          58.2437   88.1280    7.0710 H       1  UNL1        0.1496
     24 C          61.2473   89.7860   10.2474 C.ar    1  UNL1        0.2217
     25 N          60.2775   89.8884    9.1077 N.ar    1  UNL1       -0.1810
     26 C          59.9499   88.6741    8.2903 C.ar    1  UNL1        0.2216
     27 N          60.5921   87.3575    8.6125 N.ar    1  UNL1       -0.1808
     28 C          61.5619   87.2551    9.7522 C.ar    1  UNL1        0.2249
     29 N          61.8895   88.4694   10.5696 N.ar    1  UNL1       -0.1808
     30 N          62.2042   85.9383   10.0745 N.pl3   1  UNL1       -0.2752
     31 C          62.9545   85.1901    9.0129 C.3     1  UNL1        0.1109
     32 C          63.5968   83.8733    9.3352 C.3     1  UNL1        0.0939
     33 N          63.4887   83.3050   10.7192 N.3     1  UNL1       -0.2686
     34 C          64.1309   81.9883   11.0415 C.3     1  UNL1        0.0897
     35 C          62.7382   84.0533   11.7808 C.3     1  UNL1        0.0939
     36 C          62.0960   85.3700   11.4584 C.3     1  UNL1        0.1109
     37 C          62.9810   91.2323   11.5329 C.3     1  UNL1        0.1108
     38 N          61.5750   91.0003   11.0648 N.pl3   1  UNL1       -0.3012
     39 H          60.8671   91.6450   11.2940 H       1  UNL1        0.1497
@<TRIPOS>BOND
     1    37    38    1
     2    38    24    1
     3    24    25   ar
     4    25    26   ar
     5    26    22    1
     6    22     1    1
     7     1     2    1
     8     2     3    1
     9     3     4    1
    10     4     7    1
    11     7     8    2
    12     7     9   am
    13     9    11    1
    14    11    12    1
    15    12    13   ar
    16    13    14   ar
    17    14    15   ar
    18    15    16   ar
    19    16    17   ar
    20    17    18    1
    21    18    19    1
    22    18    20    1
    23    18    21    1
    24     4     5    1
    25     5     6    1
    26    26    27   ar
    27    27    28   ar
    28    28    30    1
    29    30    31    1
    30    31    32    1
    31    32    33    1
    32    33    34    1
    33    33    35    1
    34    35    36    1
    35    28    29   ar
    36    29    24   ar
    37     6     1    1
    38    36    30    1
    39    17    12   ar
    40    38    39    1
    41    22    23    1
    42     9    10    1
@<TRIPOS>MOLECULE
*****
 39 42 0 0 0
SMALL
GASTEIGER

@<TRIPOS>ATOM
      1 C          63.7739   90.1056   14.1815 C.3     1  UNL1        0.0718
      2 C          64.2812   88.7648   14.6232 C.3     1  UNL1        0.0201
      3 C          63.9451   87.5371   13.8296 C.3     1  UNL1        0.0108
      4 C          63.1017   87.6502   12.5943 C.3     1  UNL1        0.0766
      5 C          62.5945   88.9909   12.1526 C.3     1  UNL1        0.0108
      6 C          62.9306   90.2186   12.9462 C.3     1  UNL1        0.0201
      7 C          62.7655   86.4225   11.8007 C.2     1  UNL1        0.2222
      8 O          62.3785   86.5455   10.3567 O.2     1  UNL1       -0.2751
      9 N          62.8165   85.0718   12.4511 N.am    1  UNL1       -0.3004
     10 H          63.0705   84.9910   13.3988 H       1  UNL1        0.1497
     11 C          62.4804   83.8441   11.6575 C.3     1  UNL1        0.1163
     12 C          62.3397   82.5199   12.3480 C.ar    1  UNL1        0.0013
     13 C          61.4922   82.4029   13.5801 C.ar    1  UNL1       -0.0027
     14 C          61.3515   81.0787   14.2706 C.ar    1  UNL1       -0.0003
     15 C          62.0582   79.8716   13.7290 C.ar    1  UNL1       -0.0001
     16 C          62.9057   79.9886   12.4968 C.ar    1  UNL1        0.0036
     17 C          63.0464   81.3128   11.8063 C.ar    1  UNL1        0.0691
     18 C          63.8938   81.4298   10.5743 C.3     1  UNL1        0.4183
     19 F          64.7414   81.5469    9.3421 F       1  UNL1       -0.1659
     20 F          62.9247   80.5638    9.8254 F       1  UNL1       -0.1659
     21 F          64.8630   82.2958   11.3231 F       1  UNL1       -0.1659
     22 N          64.1101   91.3333   14.9751 N.pl3   1  UNL1       -0.3045
     23 H          63.5510   91.5912   15.7433 H       1  UNL1        0.1496
     24 C          67.6590   93.1007   15.1509 C.ar    1  UNL1        0.2217
     25 N          66.4711   92.2660   15.5278 N.ar    1  UNL1       -0.1810
     26 C          65.2980   92.1680   14.5981 C.ar    1  UNL1        0.2216
     27 N          65.3129   92.9047   13.2916 N.ar    1  UNL1       -0.1808
     28 C          66.5008   93.7394   12.9147 C.ar    1  UNL1        0.2249
     29 N          67.6739   93.8374   13.8444 N.ar    1  UNL1       -0.1808
     30 N          66.5157   94.4761   11.6081 N.pl3   1  UNL1       -0.2752
     31 C          66.1087   95.9188   11.5559 C.3     1  UNL1        0.1109
     32 C          66.1237   96.6555   10.2494 C.3     1  UNL1        0.0939
     33 N          66.5456   95.9494    8.9950 N.3     1  UNL1       -0.2686
     34 C          66.5605   96.6860    7.6885 C.3     1  UNL1        0.0897
     35 C          66.9526   94.5066    9.0473 C.3     1  UNL1        0.0939
     36 C          66.9376   93.7699   10.3538 C.3     1  UNL1        0.1109
     37 C          69.5165   94.5173   16.2881 C.3     1  UNL1        0.1108
     38 N          68.8321   93.1988   16.0806 N.pl3   1  UNL1       -0.3012
     39 H          69.1528   92.3977   16.5546 H       1  UNL1        0.1497
@<TRIPOS>BOND
     1    37    38    1
     2    38    24    1
     3    24    25   ar
     4    25    26   ar
     5    26    22    1
     6    22     1    1
     7     1     2    1
     8     2     3    1
     9     3     4    1
    10     4     7    1
    11     7     8    2
    12     7     9   am
    13     9    11    1
    14    11    12    1
    15    12    13   ar
    16    13    14   ar
    17    14    15   ar
    18    15    16   ar
    19    16    17   ar
    20    17    18    1
    21    18    19    1
    22    18    20    1
    23    18    21    1
    24     4     5    1
    25     5     6    1
    26    26    27   ar
    27    27    28   ar
    28    28    30    1
    29    30    31    1
    30    31    32    1
    31    32    33    1
    32    33    34    1
    33    33    35    1
    34    35    36    1
    35    28    29   ar
    36    29    24   ar
    37     6     1    1
    38    36    30    1
    39    17    12   ar
    40    38    39    1
    41    22    23    1
    42     9    10    1
@<TRIPOS>MOLECULE
*****
 39 42 0 0 0
SMALL
GASTEIGER

@<TRIPOS>ATOM
      1 C          58.9698   90.2960    5.9157 C.3     1  UNL1        0.0718
      2 C          57.9981   91.1846    5.1972 C.3     1  UNL1        0.0201
      3 C          58.4866   92.1301    4.1401 C.3     1  UNL1        0.0108
      4 C          59.9468   92.1871    3.8016 C.3     1  UNL1        0.0766
      5 C          60.9185   91.2985    4.5201 C.3     1  UNL1        0.0108
      6 C          60.4300   90.3530    5.5771 C.3     1  UNL1        0.0201
      7 C          60.4353   93.1326    2.7445 C.2     1  UNL1        0.2222
      8 O          59.9822   94.5624    2.7498 O.2     1  UNL1       -0.2751
      9 N          61.3770   92.6482    1.6821 N.am    1  UNL1       -0.3004
     10 H          61.6745   91.7097    1.6787 H       1  UNL1        0.1497
     11 C          61.8655   93.5937    0.6251 C.3     1  UNL1        0.1163
     12 C          61.2071   93.6172   -0.7224 C.ar    1  UNL1        0.0013
     13 C          59.7858   93.1613   -0.8707 C.ar    1  UNL1       -0.0027
     14 C          59.1273   93.1848   -2.2183 C.ar    1  UNL1       -0.0003
     15 C          59.8901   93.6643   -3.4175 C.ar    1  UNL1       -0.0001
     16 C          61.3115   94.1202   -3.2692 C.ar    1  UNL1        0.0036
     17 C          61.9700   94.0966   -1.9217 C.ar    1  UNL1        0.0691
     18 C          63.3913   94.5525   -1.7734 C.3     1  UNL1        0.4183
     19 F          64.8127   95.0084   -1.6251 F       1  UNL1       -0.1659
     20 F          62.9123   95.9219   -1.3923 F       1  UNL1       -0.1659
     21 F          63.8703   93.1831   -2.1545 F       1  UNL1       -0.1659
     22 N          58.4813   89.3505    6.9727 N.pl3   1  UNL1       -0.3045
     23 H          57.5529   89.4094    7.2949 H       1  UNL1        0.1496
     24 C          60.4666   85.9452    7.4336 C.ar    1  UNL1        0.2217
     25 N          59.5406   86.9805    6.8675 N.ar    1  UNL1       -0.1810
     26 C          59.4074   88.3152    7.5389 C.ar    1  UNL1        0.2216
     27 N          60.2003   88.6146    8.7765 N.ar    1  UNL1       -0.1808
     28 C          61.1264   87.5793    9.3426 C.ar    1  UNL1        0.2249
     29 N          61.2595   86.2446    8.6712 N.ar    1  UNL1       -0.1808
     30 N          61.9193   87.8787   10.5803 N.pl3   1  UNL1       -0.2752
     31 C          62.2221   89.3001   10.9515 C.3     1  UNL1        0.1109
     32 C          63.0151   89.5995   12.1891 C.3     1  UNL1        0.0939
     33 N          63.5052   88.4774   13.0555 N.3     1  UNL1       -0.2686
     34 C          64.2981   88.7767   14.2931 C.3     1  UNL1        0.0897
     35 C          63.2023   87.0559   12.6843 C.3     1  UNL1        0.0939
     36 C          62.4094   86.7566   11.4467 C.3     1  UNL1        0.1109
     37 C          61.7495   84.3487    5.8351 C.3     1  UNL1        0.1108
     38 N          60.5998   84.6105    6.7622 N.pl3   1  UNL1       -0.3012
     39 H          59.9326   83.9063    6.9300 H       1  UNL1        0.1497
@<TRIPOS>BOND
     1    37    38    1
     2    38    24    1
     3    24    25   ar
     4    25    26   ar
     5    26    22    1
     6    22     1    1
     7     1     2    1
     8     2     3    1
     9     3     4    1
    10     4     7    1
    11     7     8    2
    12     7     9   am
    13     9    11    1
    14    11    12    1
    15    12    13   ar
    16    13    14   ar
    17    14    15   ar
    18    15    16   ar
    19    16    17   ar
    20    17    18    1
    21    18    19    1
    22    18    20    1
    23    18    21    1
    24     4     5    1
    25     5     6    1
    26    26    27   ar
    27    27    28   ar
    28    28    30    1
    29    30    31    1
    30    31    32    1
    31    32    33    1
    32    33    34    1
    33    33    35    1
    34    35    36    1
    35    28    29   ar
    36    29    24   ar
    37     6     1    1
    38    36    30    1
    39    17    12   ar
    40    38    39    1
    41    22    23    1
    42     9    10    1
