@<TRIPOS>MOLECULE
*****
 42 46 0 0 0
SMALL
GASTEIGER

@<TRIPOS>ATOM
      1 C          63.9781   86.3690   15.6814 C.ar    1  UNL1        0.0611
      2 C          63.1586   85.9899   16.8793 C.ar    1  UNL1        0.1037
      3 N          62.6347   87.2509   17.5001 N.ar    1  UNL1       -0.2269
      4 C          63.1303   88.4092   16.6860 C.ar    1  UNL1        0.1407
      5 N          62.9328   89.8897   16.8231 N.ar    1  UNL1       -0.3374
      6 C          63.5656   90.8253   15.8360 C.ar    1  UNL1        0.0734
      7 C          64.3959   90.2802   14.7120 C.ar    1  UNL1        0.0171
      8 C          64.5934   88.7996   14.5749 C.ar    1  UNL1        0.0046
      9 C          63.9606   87.8641   15.5620 C.ar    1  UNL1        0.0386
     10 H          62.3878   90.2475   17.5608 H       1  UNL1        0.1674
     11 C          65.0287   91.2158   13.7249 C.ar    1  UNL1        0.0015
     12 C          64.4022   91.4205   12.3775 C.ar    1  UNL1        0.0014
     13 C          65.0350   92.3561   11.3904 C.ar    1  UNL1        0.0199
     14 C          66.2944   93.0870   11.7508 C.ar    1  UNL1        0.1219
     15 C          66.9209   92.8823   13.0983 C.ar    1  UNL1        0.0199
     16 C          66.2880   91.9467   14.0853 C.ar    1  UNL1        0.0014
     17 S          66.9272   94.0226   10.7638 S.O2    1  UNL1        0.0602
     18 O          67.2031   92.8683    9.8466 O.2     1  UNL1       -0.1530
     19 O          66.6512   95.1769   11.6811 O.2     1  UNL1       -0.1530
     20 N          67.5600   94.9581    9.7769 N.3     1  UNL1       -0.1808
     21 H          68.0267   94.3786    9.0792 H       1  UNL1        0.1487
     22 C          66.7123   95.9417    9.0258 C.3     1  UNL1        0.0756
     23 C          66.4318   96.7307    7.7814 C.3     1  UNL1        0.0188
     24 C          65.5246   96.8560    8.9693 C.3     1  UNL1        0.0188
     25 C          64.6901   85.4195   14.7640 C.2     1  UNL1        0.2015
     26 O          66.1801   85.2698   14.8490 O.2     1  UNL1       -0.2864
     27 C          62.5811   84.4866   11.5341 C.ar    1  UNL1        0.0920
     28 C          62.3558   83.0204   11.7564 C.ar    1  UNL1        0.0204
     29 C          62.9085   82.3539   12.9813 C.ar    1  UNL1        0.0312
     30 C          63.6866   83.1535   13.9838 C.ar    1  UNL1        0.1454
     31 F          64.2394   82.4870   15.2086 F       1  UNL1       -0.2040
     32 C          63.9120   84.6198   13.7614 C.ar    1  UNL1        0.0951
     33 C          63.3592   85.2862   12.5366 C.ar    1  UNL1        0.1598
     34 F          63.5846   86.7525   12.3143 F       1  UNL1       -0.2026
     35 N          62.0284   85.1531   10.3092 N.pl3   1  UNL1       -0.2166
     36 H          61.9113   84.6376    9.4787 H       1  UNL1        0.1734
     37 S          61.6542   86.6051   10.3497 S.O2    1  UNL1        0.0540
     38 O          60.8513   86.3634   11.5935 O.2     1  UNL1       -0.1545
     39 O          62.4570   86.8467    9.1060 O.2     1  UNL1       -0.1545
     40 C          61.2800   88.0571   10.3902 C.3     1  UNL1        0.1724
     41 C          62.0272   90.5163   10.0108 C.3     1  UNL1        0.0019
     42 C          62.3508   89.1073   10.4105 C.3     1  UNL1        0.0273
@<TRIPOS>BOND
     1    41    42    1
     2    42    40    1
     3    40    37    1
     4    37    38    2
     5    37    39    2
     6    37    35    1
     7    35    27    1
     8    27    28   ar
     9    28    29   ar
    10    29    30   ar
    11    30    31    1
    12    30    32   ar
    13    32    25    1
    14    25    26    2
    15    25     1    1
    16     1     2   ar
    17     2     3   ar
    18     3     4   ar
    19     4     5   ar
    20     5     6   ar
    21     6     7   ar
    22     7    11    1
    23    11    12   ar
    24    12    13   ar
    25    13    14   ar
    26    14    17    1
    27    17    18    2
    28    17    19    2
    29    17    20    1
    30    20    22    1
    31    22    23    1
    32    23    24    1
    33    14    15   ar
    34    15    16   ar
    35     7     8   ar
    36     8     9   ar
    37    32    33   ar
    38    33    34    1
    39    33    27   ar
    40     9     1   ar
    41     9     4    1
    42    16    11   ar
    43    24    22    1
    44    35    36    1
    45     5    10    1
    46    20    21    1
@<TRIPOS>MOLECULE
*****
 42 46 0 0 0
SMALL
GASTEIGER

@<TRIPOS>ATOM
      1 C          61.5186   86.1907    8.9735 C.ar    1  UNL1        0.0611
      2 C          60.1801   85.8983    8.3630 C.ar    1  UNL1        0.1037
      3 N          59.3198   87.1161    8.5273 N.ar    1  UNL1       -0.2269
      4 C          60.1266   88.1610    9.2394 C.ar    1  UNL1        0.1407
      5 N          59.7995   89.5594    9.6723 N.ar    1  UNL1       -0.3374
      6 C          60.8313   90.3858   10.3810 C.ar    1  UNL1        0.0734
      7 C          62.1903   89.8139   10.6567 C.ar    1  UNL1        0.0171
      8 C          62.5174   88.4155   10.2238 C.ar    1  UNL1        0.0046
      9 C          61.4856   87.5891    9.5152 C.ar    1  UNL1        0.0386
     10 H          58.9075   89.9348    9.4913 H       1  UNL1        0.1674
     11 C          63.2221   90.6404   11.3655 C.ar    1  UNL1        0.0015
     12 C          63.4672   90.4386   12.8315 C.ar    1  UNL1        0.0014
     13 C          64.4990   91.2652   13.5402 C.ar    1  UNL1        0.0199
     14 C          65.2858   92.2935   12.7829 C.ar    1  UNL1        0.1219
     15 C          65.0407   92.4953   11.3168 C.ar    1  UNL1        0.0199
     16 C          64.0089   91.6688   10.6081 C.ar    1  UNL1        0.0014
     17 S          66.3176   93.1200   13.4915 S.O2    1  UNL1        0.0602
     18 O          67.0152   93.3675   12.1870 O.2     1  UNL1       -0.1530
     19 O          65.6199   92.8724   14.7961 O.2     1  UNL1       -0.1530
     20 N          67.3494   93.9465   14.2002 N.3     1  UNL1       -0.1808
     21 H          66.8576   94.7363   14.6183 H       1  UNL1        0.1487
     22 C          68.1857   93.3340   15.2843 C.3     1  UNL1        0.0756
     23 C          69.4530   93.3024   16.0861 C.3     1  UNL1        0.0188
     24 C          68.3668   92.3049   16.3604 C.3     1  UNL1        0.0188
     25 C          62.6854   85.2498    9.0321 C.2     1  UNL1        0.2015
     26 O          63.5245   85.0185    7.8106 O.2     1  UNL1       -0.2864
     27 C          62.6776   84.2473   12.8721 C.ar    1  UNL1        0.0920
     28 C          63.6682   83.1209   12.8730 C.ar    1  UNL1        0.0204
     29 C          64.3312   82.7042   11.5936 C.ar    1  UNL1        0.0312
     30 C          64.0036   83.4138   10.3134 C.ar    1  UNL1        0.1454
     31 F          64.6666   82.9971    9.0340 F       1  UNL1       -0.2040
     32 C          63.0130   84.5401   10.3125 C.ar    1  UNL1        0.0951
     33 C          62.3500   84.9568   11.5918 C.ar    1  UNL1        0.1598
     34 F          61.3594   86.0832   11.5909 F       1  UNL1       -0.2026
     35 N          62.0146   84.6640   14.1515 N.pl3   1  UNL1       -0.2166
     36 H          61.0388   84.5788   14.2507 H       1  UNL1        0.1734
     37 S          62.8383   85.2104   15.2797 S.O2    1  UNL1        0.0540
     38 O          62.2120   84.2205   16.2165 O.2     1  UNL1       -0.1545
     39 O          63.4646   86.2004   14.3428 O.2     1  UNL1       -0.1545
     40 C          63.6621   85.7570   16.4078 C.3     1  UNL1        0.1724
     41 C          63.0365   88.1580   17.1787 C.3     1  UNL1        0.0019
     42 C          63.0380   86.6767   17.4151 C.3     1  UNL1        0.0273
@<TRIPOS>BOND
     1    41    42    1
     2    42    40    1
     3    40    37    1
     4    37    38    2
     5    37    39    2
     6    37    35    1
     7    35    27    1
     8    27    28   ar
     9    28    29   ar
    10    29    30   ar
    11    30    31    1
    12    30    32   ar
    13    32    25    1
    14    25    26    2
    15    25     1    1
    16     1     2   ar
    17     2     3   ar
    18     3     4   ar
    19     4     5   ar
    20     5     6   ar
    21     6     7   ar
    22     7    11    1
    23    11    12   ar
    24    12    13   ar
    25    13    14   ar
    26    14    17    1
    27    17    18    2
    28    17    19    2
    29    17    20    1
    30    20    22    1
    31    22    23    1
    32    23    24    1
    33    14    15   ar
    34    15    16   ar
    35     7     8   ar
    36     8     9   ar
    37    32    33   ar
    38    33    34    1
    39    33    27   ar
    40     9     1   ar
    41     9     4    1
    42    16    11   ar
    43    24    22    1
    44    35    36    1
    45     5    10    1
    46    20    21    1
@<TRIPOS>MOLECULE
*****
 42 46 0 0 0
SMALL
GASTEIGER

@<TRIPOS>ATOM
      1 C          63.9108   86.0336   15.5629 C.ar    1  UNL1        0.0611
      2 C          63.1697   85.4760   16.7418 C.ar    1  UNL1        0.1037
      3 N          62.6902   86.6276   17.5747 N.ar    1  UNL1       -0.2269
      4 C          63.1349   87.8970   16.9106 C.ar    1  UNL1        0.1407
      5 N          62.9504   89.3396   17.2775 N.ar    1  UNL1       -0.3374
      6 C          63.5203   90.4151   16.4009 C.ar    1  UNL1        0.0734
      7 C          64.2747   90.0480   15.1575 C.ar    1  UNL1        0.0171
      8 C          64.4592   88.6053   14.7906 C.ar    1  UNL1        0.0046
      9 C          63.8893   87.5298   15.6672 C.ar    1  UNL1        0.0386
     10 H          62.4553   89.5806   18.0936 H       1  UNL1        0.1674
     11 C          64.8447   91.1236   14.2809 C.ar    1  UNL1        0.0015
     12 C          65.8341   92.1019   14.8412 C.ar    1  UNL1        0.0014
     13 C          66.4040   93.1775   13.9646 C.ar    1  UNL1        0.0199
     14 C          65.9844   93.2747   12.5277 C.ar    1  UNL1        0.1219
     15 C          64.9950   92.2964   11.9675 C.ar    1  UNL1        0.0199
     16 C          64.4251   91.2208   12.8441 C.ar    1  UNL1        0.0014
     17 S          66.5543   94.3503   11.6511 S.O2    1  UNL1        0.0602
     18 O          67.0456   93.3076   10.6913 O.2     1  UNL1       -0.1530
     19 O          66.0630   95.3929   12.6110 O.2     1  UNL1       -0.1530
     20 N          67.1242   95.4258   10.7746 N.3     1  UNL1       -0.1808
     21 H          68.0442   95.6554   11.1505 H       1  UNL1        0.1487
     22 C          67.3058   95.1788    9.3062 C.3     1  UNL1        0.0756
     23 C          67.2117   95.6561    7.8873 C.3     1  UNL1        0.0188
     24 C          67.7143   94.2739    8.1819 C.3     1  UNL1        0.0188
     25 C          64.5595   85.2351   14.4713 C.2     1  UNL1        0.2015
     26 O          66.0139   84.8806   14.5643 O.2     1  UNL1       -0.2864
     27 C          62.4147   85.3623   11.1345 C.ar    1  UNL1        0.0920
     28 C          62.1420   83.9034   10.9171 C.ar    1  UNL1        0.0204
     29 C          62.6751   82.8884   11.8843 C.ar    1  UNL1        0.0312
     30 C          63.4809   83.3323   13.0690 C.ar    1  UNL1        0.1454
     31 F          64.0141   82.3173   14.0363 F       1  UNL1       -0.2040
     32 C          63.7536   84.7912   13.2865 C.ar    1  UNL1        0.0951
     33 C          63.2205   85.8061   12.3192 C.ar    1  UNL1        0.1598
     34 F          63.4932   87.2650   12.5367 F       1  UNL1       -0.2026
     35 N          61.8815   86.3772   10.1672 N.pl3   1  UNL1       -0.2166
     36 H          61.7340   87.3057   10.4594 H       1  UNL1        0.1734
     37 S          61.5732   85.9775    8.7547 S.O2    1  UNL1        0.0540
     38 O          63.0140   85.6189    8.5416 O.2     1  UNL1       -0.1545
     39 O          60.1323   86.3360    8.9678 O.2     1  UNL1       -0.1545
     40 C          61.2647   85.5778    7.3423 C.3     1  UNL1        0.1724
     41 C          61.8065   84.0377    5.3212 C.3     1  UNL1        0.0019
     42 C          62.2459   84.7508    6.5655 C.3     1  UNL1        0.0273
@<TRIPOS>BOND
     1    41    42    1
     2    42    40    1
     3    40    37    1
     4    37    38    2
     5    37    39    2
     6    37    35    1
     7    35    27    1
     8    27    28   ar
     9    28    29   ar
    10    29    30   ar
    11    30    31    1
    12    30    32   ar
    13    32    25    1
    14    25    26    2
    15    25     1    1
    16     1     2   ar
    17     2     3   ar
    18     3     4   ar
    19     4     5   ar
    20     5     6   ar
    21     6     7   ar
    22     7    11    1
    23    11    12   ar
    24    12    13   ar
    25    13    14   ar
    26    14    17    1
    27    17    18    2
    28    17    19    2
    29    17    20    1
    30    20    22    1
    31    22    23    1
    32    23    24    1
    33    14    15   ar
    34    15    16   ar
    35     7     8   ar
    36     8     9   ar
    37    32    33   ar
    38    33    34    1
    39    33    27   ar
    40     9     1   ar
    41     9     4    1
    42    16    11   ar
    43    24    22    1
    44    35    36    1
    45     5    10    1
    46    20    21    1
@<TRIPOS>MOLECULE
*****
 42 46 0 0 0
SMALL
GASTEIGER

@<TRIPOS>ATOM
      1 C          63.4781   84.5274   14.1792 C.ar    1  UNL1        0.0611
      2 C          62.8736   83.7143   15.2853 C.ar    1  UNL1        0.1037
      3 N          62.5838   84.6359   16.4328 N.ar    1  UNL1       -0.2269
      4 C          63.0092   86.0185   16.0359 C.ar    1  UNL1        0.1407
      5 N          62.9646   87.3298   16.7628 N.ar    1  UNL1       -0.3374
      6 C          63.4728   88.5740   16.0968 C.ar    1  UNL1        0.0734
      7 C          64.0255   88.5070   14.7040 C.ar    1  UNL1        0.0171
      8 C          64.0701   87.1957   13.9771 C.ar    1  UNL1        0.0046
      9 C          63.5619   85.9514   14.6431 C.ar    1  UNL1        0.0386
     10 H          62.6018   87.3738   17.6769 H       1  UNL1        0.1674
     11 C          64.5337   89.7513   14.0380 C.ar    1  UNL1        0.0015
     12 C          63.8617   90.2676   12.8004 C.ar    1  UNL1        0.0014
     13 C          64.3699   91.5119   12.1345 C.ar    1  UNL1        0.0199
     14 C          65.5501   92.2399   12.7062 C.ar    1  UNL1        0.1219
     15 C          66.2222   91.7236   13.9439 C.ar    1  UNL1        0.0199
     16 C          65.7140   90.4794   14.6098 C.ar    1  UNL1        0.0014
     17 S          66.0584   93.4842   12.0403 S.O2    1  UNL1        0.0602
     18 O          65.2432   93.1653   10.8222 O.2     1  UNL1       -0.1530
     19 O          66.8735   93.8032   13.2584 O.2     1  UNL1       -0.1530
     20 N          66.5666   94.7285   11.3745 N.3     1  UNL1       -0.1808
     21 H          67.2458   95.1464   12.0104 H       1  UNL1        0.1487
     22 C          67.2271   94.6436   10.0304 C.3     1  UNL1        0.0756
     23 C          67.9983   93.8612    9.0091 C.3     1  UNL1        0.0188
     24 C          67.5998   95.2789    8.7237 C.3     1  UNL1        0.0188
     25 C          63.9211   84.0077   12.8437 C.2     1  UNL1        0.2015
     26 O          64.9883   82.9567   12.7642 O.2     1  UNL1       -0.2864
     27 C          61.4881   85.9873   10.4122 C.ar    1  UNL1        0.0920
     28 C          62.0480   85.6015    9.0752 C.ar    1  UNL1        0.0204
     29 C          63.2322   84.6845    8.9943 C.ar    1  UNL1        0.0312
     30 C          63.8566   84.1532   10.2504 C.ar    1  UNL1        0.1454
     31 F          65.0409   83.2361   10.1695 F       1  UNL1       -0.2040
     32 C          63.2967   84.5390   11.5874 C.ar    1  UNL1        0.0951
     33 C          62.1125   85.4560   11.6683 C.ar    1  UNL1        0.1598
     34 F          61.5526   85.8418   13.0054 F       1  UNL1       -0.2026
     35 N          60.3038   86.9044   10.4931 N.pl3   1  UNL1       -0.2166
     36 H          59.6346   86.7825   11.2048 H       1  UNL1        0.1734
     37 S          60.1393   88.0071    9.4896 S.O2    1  UNL1        0.0540
     38 O          61.1324   88.8411   10.2434 O.2     1  UNL1       -0.1545
     39 O          59.1462   87.1730    8.7359 O.2     1  UNL1       -0.1545
     40 C          59.9747   89.1097    8.4862 C.3     1  UNL1        0.1724
     41 C          59.3142   89.8753    6.0928 C.3     1  UNL1        0.0019
     42 C          59.3028   88.8350    7.1734 C.3     1  UNL1        0.0273
@<TRIPOS>BOND
     1    41    42    1
     2    42    40    1
     3    40    37    1
     4    37    38    2
     5    37    39    2
     6    37    35    1
     7    35    27    1
     8    27    28   ar
     9    28    29   ar
    10    29    30   ar
    11    30    31    1
    12    30    32   ar
    13    32    25    1
    14    25    26    2
    15    25     1    1
    16     1     2   ar
    17     2     3   ar
    18     3     4   ar
    19     4     5   ar
    20     5     6   ar
    21     6     7   ar
    22     7    11    1
    23    11    12   ar
    24    12    13   ar
    25    13    14   ar
    26    14    17    1
    27    17    18    2
    28    17    19    2
    29    17    20    1
    30    20    22    1
    31    22    23    1
    32    23    24    1
    33    14    15   ar
    34    15    16   ar
    35     7     8   ar
    36     8     9   ar
    37    32    33   ar
    38    33    34    1
    39    33    27   ar
    40     9     1   ar
    41     9     4    1
    42    16    11   ar
    43    24    22    1
    44    35    36    1
    45     5    10    1
    46    20    21    1
@<TRIPOS>MOLECULE
*****
 42 46 0 0 0
SMALL
GASTEIGER

@<TRIPOS>ATOM
      1 C          64.6988   90.9349   15.0092 C.ar    1  UNL1        0.0611
      2 C          64.4186   92.0112   16.0158 C.ar    1  UNL1        0.1037
      3 N          63.6935   91.3876   17.1713 N.ar    1  UNL1       -0.2269
      4 C          63.5256   89.9260   16.8790 C.ar    1  UNL1        0.1407
      5 N          62.8872   88.8137   17.6570 N.ar    1  UNL1       -0.3374
      6 C          62.8702   87.4216   17.0987 C.ar    1  UNL1        0.0734
      7 C          63.4915   87.1418   15.7624 C.ar    1  UNL1        0.0171
      8 C          64.1299   88.2541   14.9844 C.ar    1  UNL1        0.0046
      9 C          64.1469   89.6462   15.5428 C.ar    1  UNL1        0.0386
     10 H          62.4794   88.9974   18.5341 H       1  UNL1        0.1674
     11 C          63.4745   85.7497   15.2041 C.ar    1  UNL1        0.0015
     12 C          64.6358   85.2514   14.3961 C.ar    1  UNL1        0.0014
     13 C          64.6188   83.8592   13.8378 C.ar    1  UNL1        0.0199
     14 C          63.4403   82.9654   14.0875 C.ar    1  UNL1        0.1219
     15 C          62.2789   83.4637   14.8956 C.ar    1  UNL1        0.0199
     16 C          62.2960   84.8558   15.4539 C.ar    1  UNL1        0.0014
     17 S          63.4232   81.5733   13.5293 S.O2    1  UNL1        0.0602
     18 O          64.5144   81.9447   12.5695 O.2     1  UNL1       -0.1530
     19 O          62.3320   81.2018   14.4890 O.2     1  UNL1       -0.1530
     20 N          63.4061   80.1812   12.9710 N.3     1  UNL1       -0.1808
     21 H          62.7179   79.6560   13.5104 H       1  UNL1        0.1487
     22 C          63.0837   79.9576   11.5232 C.3     1  UNL1        0.0756
     23 C          62.8569   80.5015   10.1439 C.3     1  UNL1        0.0188
     24 C          62.7520   79.0264   10.3950 C.3     1  UNL1        0.0188
     25 C          65.4067   91.1156   13.6992 C.2     1  UNL1        0.2015
     26 O          66.9056   91.1496   13.6550 O.2     1  UNL1       -0.2864
     27 C          62.5216   90.6825   11.0086 C.ar    1  UNL1        0.0920
     28 C          63.0333   91.5555    9.9013 C.ar    1  UNL1        0.0204
     29 C          64.3361   92.2818   10.0600 C.ar    1  UNL1        0.0312
     30 C          65.1272   92.1352   11.3259 C.ar    1  UNL1        0.1454
     31 F          66.4300   92.8616   11.4845 F       1  UNL1       -0.2040
     32 C          64.6155   91.2622   12.4331 C.ar    1  UNL1        0.0951
     33 C          63.3128   90.5359   12.2745 C.ar    1  UNL1        0.1598
     34 F          62.8012   89.6629   13.3818 F       1  UNL1       -0.2026
     35 N          61.2188   89.9561   10.8499 N.pl3   1  UNL1       -0.2166
     36 H          60.3920   90.4609   10.6744 H       1  UNL1        0.1734
     37 S          61.1759   88.4607   10.9587 S.O2    1  UNL1        0.0540
     38 O          62.2455   88.3539    9.9125 O.2     1  UNL1       -0.1545
     39 O          60.1062   88.5676   12.0049 O.2     1  UNL1       -0.1545
     40 C          61.1328   86.9653   11.0675 C.3     1  UNL1        0.1724
     41 C          62.5866   84.8135   10.9879 C.3     1  UNL1        0.0019
     42 C          62.3573   86.2084   11.4893 C.3     1  UNL1        0.0273
@<TRIPOS>BOND
     1    41    42    1
     2    42    40    1
     3    40    37    1
     4    37    38    2
     5    37    39    2
     6    37    35    1
     7    35    27    1
     8    27    28   ar
     9    28    29   ar
    10    29    30   ar
    11    30    31    1
    12    30    32   ar
    13    32    25    1
    14    25    26    2
    15    25     1    1
    16     1     2   ar
    17     2     3   ar
    18     3     4   ar
    19     4     5   ar
    20     5     6   ar
    21     6     7   ar
    22     7    11    1
    23    11    12   ar
    24    12    13   ar
    25    13    14   ar
    26    14    17    1
    27    17    18    2
    28    17    19    2
    29    17    20    1
    30    20    22    1
    31    22    23    1
    32    23    24    1
    33    14    15   ar
    34    15    16   ar
    35     7     8   ar
    36     8     9   ar
    37    32    33   ar
    38    33    34    1
    39    33    27   ar
    40     9     1   ar
    41     9     4    1
    42    16    11   ar
    43    24    22    1
    44    35    36    1
    45     5    10    1
    46    20    21    1
