@<TRIPOS>MOLECULE
*****
 29 32 0 0 0
SMALL
GASTEIGER

@<TRIPOS>ATOM
      1 C          62.2974   86.9271   17.9624 C.3     1  UNL1        0.0233
      2 C          63.0598   87.5315   16.8207 C.3     1  UNL1        0.0956
      3 C          63.1855   89.0220   16.7083 C.3     1  UNL1        0.1135
      4 N          63.9480   89.6264   15.5667 N.am    1  UNL1       -0.2726
      5 C          64.0736   91.1170   15.4544 C.2     1  UNL1        0.2491
      6 O          63.4368   92.0031   16.4836 O.2     1  UNL1       -0.2699
      7 C          64.5848   88.7404   14.5374 C.3     1  UNL1        0.1152
      8 C          64.4591   87.2499   14.6499 C.3     1  UNL1        0.1153
      9 N          63.6966   86.6455   15.7915 N.am    1  UNL1       -0.2716
     10 C          63.5709   85.1550   15.9039 C.2     1  UNL1        0.2883
     11 O          62.8085   84.5506   17.0455 O.2     1  UNL1       -0.2664
     12 C          64.8360   91.7214   14.3127 C.ar    1  UNL1        0.0536
     13 C          64.3121   91.5990   12.9126 C.ar    1  UNL1        0.0045
     14 C          65.0746   92.2034   11.7709 C.ar    1  UNL1        0.0001
     15 C          66.3610   92.9302   12.0295 C.ar    1  UNL1        0.0000
     16 C          66.8850   93.0526   13.4296 C.ar    1  UNL1        0.0001
     17 C          66.1225   92.4482   14.5712 C.ar    1  UNL1        0.0045
     18 C          64.2078   84.2689   14.8746 C.2     1  UNL1        0.2502
     19 O          65.6446   84.4725   14.4954 O.2     1  UNL1       -0.2816
     20 C          63.4076   83.1792   14.2246 C.ar    1  UNL1        0.0656
     21 C          62.3169   82.3795   14.8733 C.ar    1  UNL1        0.1039
     22 N          61.7930   81.4040   13.8614 N.ar    1  UNL1       -0.2269
     23 C          62.5598   81.6009   12.5873 C.ar    1  UNL1        0.1407
     24 N          62.4783   80.9229   11.2518 N.ar    1  UNL1       -0.3374
     25 C          63.3948   81.3420   10.1408 C.ar    1  UNL1        0.0735
     26 C          64.3927   82.4392   10.3653 C.ar    1  UNL1        0.0186
     27 C          64.4742   83.1172   11.7008 C.ar    1  UNL1        0.0047
     28 C          63.5578   82.6981   12.8118 C.ar    1  UNL1        0.0387
     29 H          61.8234   80.2028   11.1045 H       1  UNL1        0.1674
@<TRIPOS>BOND
     1     2     1    1
     2     2     3    1
     3     3     4    1
     4     4     5   am
     5     5     6    2
     6     5    12    1
     7    12    13   ar
     8    13    14   ar
     9    14    15   ar
    10    15    16   ar
    11    16    17   ar
    12     4     7    1
    13     7     8    1
    14     8     9    1
    15     9    10   am
    16    10    11    2
    17    10    18    1
    18    18    19    2
    19    18    20    1
    20    20    21   ar
    21    21    22   ar
    22    22    23   ar
    23    23    24   ar
    24    24    25   ar
    25    25    26   ar
    26    26    27   ar
    27    27    28   ar
    28     9     2    1
    29    28    20   ar
    30    17    12   ar
    31    28    23    1
    32    24    29    1
@<TRIPOS>MOLECULE
*****
 29 32 0 0 0
SMALL
GASTEIGER

@<TRIPOS>ATOM
      1 C          63.1600   87.6822   17.5663 C.3     1  UNL1        0.0233
      2 C          63.3055   87.1057   16.1892 C.3     1  UNL1        0.0956
      3 C          63.2861   85.6188   15.9926 C.3     1  UNL1        0.1135
      4 N          63.4315   85.0424   14.6155 N.am    1  UNL1       -0.2726
      5 C          63.4122   83.5554   14.4190 C.2     1  UNL1        0.2491
      6 O          63.2474   82.6449   15.5996 O.2     1  UNL1       -0.2699
      7 C          63.5963   85.9528   13.4348 C.3     1  UNL1        0.1152
      8 C          63.6157   87.4397   13.6314 C.3     1  UNL1        0.1153
      9 N          63.4703   88.0162   15.0086 N.am    1  UNL1       -0.2716
     10 C          63.4896   89.5031   15.2051 C.2     1  UNL1        0.2883
     11 O          63.3442   90.0795   16.5823 O.2     1  UNL1       -0.2664
     12 C          63.5576   82.9789   13.0418 C.ar    1  UNL1        0.0536
     13 C          64.5311   83.5841   12.0744 C.ar    1  UNL1        0.0045
     14 C          64.6765   83.0076   10.6972 C.ar    1  UNL1        0.0001
     15 C          63.8484   81.8260   10.2875 C.ar    1  UNL1        0.0000
     16 C          62.8748   81.2209   11.2549 C.ar    1  UNL1        0.0001
     17 C          62.7294   81.7973   12.6321 C.ar    1  UNL1        0.0045
     18 C          63.6544   90.4137   14.0245 C.2     1  UNL1        0.2502
     19 O          62.5832   90.4848   12.9770 O.2     1  UNL1       -0.2816
     20 C          64.8905   91.2530   13.8914 C.ar    1  UNL1        0.0656
     21 C          65.9202   91.4812   14.9579 C.ar    1  UNL1        0.1039
     22 N          66.9800   92.3807   14.3941 N.ar    1  UNL1       -0.2269
     23 C          66.6052   92.7083   12.9791 C.ar    1  UNL1        0.1407
     24 N          67.2729   93.5513   11.9334 N.ar    1  UNL1       -0.3374
     25 C          66.6493   93.6972   10.5770 C.ar    1  UNL1        0.0735
     26 C          65.3579   93.0002   10.2664 C.ar    1  UNL1        0.0186
     27 C          64.6901   92.1573   11.3121 C.ar    1  UNL1        0.0047
     28 C          65.3138   92.0113   12.6684 C.ar    1  UNL1        0.0387
     29 H          68.1205   94.0087   12.1373 H       1  UNL1        0.1674
@<TRIPOS>BOND
     1     2     1    1
     2     2     3    1
     3     3     4    1
     4     4     5   am
     5     5     6    2
     6     5    12    1
     7    12    13   ar
     8    13    14   ar
     9    14    15   ar
    10    15    16   ar
    11    16    17   ar
    12     4     7    1
    13     7     8    1
    14     8     9    1
    15     9    10   am
    16    10    11    2
    17    10    18    1
    18    18    19    2
    19    18    20    1
    20    20    21   ar
    21    21    22   ar
    22    22    23   ar
    23    23    24   ar
    24    24    25   ar
    25    25    26   ar
    26    26    27   ar
    27    27    28   ar
    28     9     2    1
    29    28    20   ar
    30    17    12   ar
    31    28    23    1
    32    24    29    1
@<TRIPOS>MOLECULE
*****
 29 32 0 0 0
SMALL
GASTEIGER

@<TRIPOS>ATOM
      1 C          62.2012   86.7693   17.7114 C.3     1  UNL1        0.0233
      2 C          63.0255   87.4795   16.6790 C.3     1  UNL1        0.0956
      3 C          63.1547   88.9734   16.7201 C.3     1  UNL1        0.1135
      4 N          63.9790   89.6836   15.6876 N.am    1  UNL1       -0.2726
      5 C          64.1081   91.1775   15.7288 C.2     1  UNL1        0.2491
      6 O          63.4130   91.9612   16.8023 O.2     1  UNL1       -0.2699
      7 C          64.6742   88.9001   14.6140 C.3     1  UNL1        0.1152
      8 C          64.5451   87.4062   14.5729 C.3     1  UNL1        0.1153
      9 N          63.7207   86.6960   15.6053 N.am    1  UNL1       -0.2716
     10 C          63.5916   85.2021   15.5642 C.2     1  UNL1        0.2883
     11 O          62.7672   84.4919   16.5967 O.2     1  UNL1       -0.2664
     12 C          64.9325   91.8878   14.6963 C.ar    1  UNL1        0.0536
     13 C          66.0852   92.7492   15.1195 C.ar    1  UNL1        0.0045
     14 C          66.9095   93.4594   14.0870 C.ar    1  UNL1        0.0001
     15 C          66.5811   93.3082   12.6312 C.ar    1  UNL1        0.0000
     16 C          65.4284   92.4468   12.2080 C.ar    1  UNL1        0.0001
     17 C          64.6041   91.7365   13.2405 C.ar    1  UNL1        0.0045
     18 C          64.2868   84.4184   14.4906 C.2     1  UNL1        0.2502
     19 O          65.7098   83.9842   14.6812 O.2     1  UNL1       -0.2816
     20 C          63.5589   84.0691   13.2264 C.ar    1  UNL1        0.0656
     21 C          63.2879   82.6838   12.7191 C.ar    1  UNL1        0.1039
     22 N          62.5358   82.8024   11.4267 N.ar    1  UNL1       -0.2269
     23 C          62.3420   84.2610   11.1353 C.ar    1  UNL1        0.1407
     24 N          61.6714   84.9774   10.0008 N.ar    1  UNL1       -0.3374
     25 C          61.6332   86.4767    9.9786 C.ar    1  UNL1        0.0735
     26 C          62.2655   87.2596   11.0909 C.ar    1  UNL1        0.0186
     27 C          62.9361   86.5432   12.2254 C.ar    1  UNL1        0.0047
     28 C          62.9743   85.0439   12.2476 C.ar    1  UNL1        0.0387
     29 H          61.2564   84.4635    9.2708 H       1  UNL1        0.1674
@<TRIPOS>BOND
     1     2     1    1
     2     2     3    1
     3     3     4    1
     4     4     5   am
     5     5     6    2
     6     5    12    1
     7    12    13   ar
     8    13    14   ar
     9    14    15   ar
    10    15    16   ar
    11    16    17   ar
    12     4     7    1
    13     7     8    1
    14     8     9    1
    15     9    10   am
    16    10    11    2
    17    10    18    1
    18    18    19    2
    19    18    20    1
    20    20    21   ar
    21    21    22   ar
    22    22    23   ar
    23    23    24   ar
    24    24    25   ar
    25    25    26   ar
    26    26    27   ar
    27    27    28   ar
    28     9     2    1
    29    28    20   ar
    30    17    12   ar
    31    28    23    1
    32    24    29    1
@<TRIPOS>MOLECULE
*****
 29 32 0 0 0
SMALL
GASTEIGER

@<TRIPOS>ATOM
      1 C          61.5169   88.6726   10.1317 C.3     1  UNL1        0.0233
      2 C          62.5103   88.8667   11.2386 C.3     1  UNL1        0.0956
      3 C          63.1181   90.2180   11.4725 C.3     1  UNL1        0.1135
      4 N          64.1115   90.4121   12.5795 N.am    1  UNL1       -0.2726
      5 C          64.7192   91.7635   12.8133 C.2     1  UNL1        0.2491
      6 O          64.3336   92.9206   11.9402 O.2     1  UNL1       -0.2699
      7 C          64.4971   89.2551   13.4527 C.3     1  UNL1        0.1152
      8 C          63.8894   87.9038   13.2188 C.3     1  UNL1        0.1153
      9 N          62.8960   87.7097   12.1118 N.am    1  UNL1       -0.2716
     10 C          62.2882   86.3584   11.8779 C.2     1  UNL1        0.2883
     11 O          61.2948   86.1643   10.7709 O.2     1  UNL1       -0.2664
     12 C          65.7126   91.9576   13.9203 C.ar    1  UNL1        0.0536
     13 C          65.2365   92.1668   15.3272 C.ar    1  UNL1        0.0045
     14 C          66.2299   92.3610   16.4342 C.ar    1  UNL1        0.0001
     15 C          67.6995   92.3459   16.1343 C.ar    1  UNL1        0.0000
     16 C          68.1757   92.1367   14.7274 C.ar    1  UNL1        0.0001
     17 C          67.1823   91.9426   13.6204 C.ar    1  UNL1        0.0045
     18 C          62.6738   85.2012   12.7511 C.2     1  UNL1        0.2502
     19 O          62.7719   85.3829   14.2368 O.2     1  UNL1       -0.2816
     20 C          62.9614   83.8626   12.1385 C.ar    1  UNL1        0.0656
     21 C          63.6812   83.6213   10.8448 C.ar    1  UNL1        0.1039
     22 N          63.7442   82.1397   10.6188 N.ar    1  UNL1       -0.2269
     23 C          63.0634   81.4654   11.7728 C.ar    1  UNL1        0.1407
     24 N          62.8215   80.0194   12.0897 N.ar    1  UNL1       -0.3374
     25 C          62.0958   79.6382   13.3459 C.ar    1  UNL1        0.0735
     26 C          61.6119   80.7029   14.2851 C.ar    1  UNL1        0.0186
     27 C          61.8538   82.1490   13.9682 C.ar    1  UNL1        0.0047
     28 C          62.5795   82.5302   12.7120 C.ar    1  UNL1        0.0387
     29 H          63.1390   79.3205   11.4733 H       1  UNL1        0.1674
@<TRIPOS>BOND
     1     2     1    1
     2     2     3    1
     3     3     4    1
     4     4     5   am
     5     5     6    2
     6     5    12    1
     7    12    13   ar
     8    13    14   ar
     9    14    15   ar
    10    15    16   ar
    11    16    17   ar
    12     4     7    1
    13     7     8    1
    14     8     9    1
    15     9    10   am
    16    10    11    2
    17    10    18    1
    18    18    19    2
    19    18    20    1
    20    20    21   ar
    21    21    22   ar
    22    22    23   ar
    23    23    24   ar
    24    24    25   ar
    25    25    26   ar
    26    26    27   ar
    27    27    28   ar
    28     9     2    1
    29    28    20   ar
    30    17    12   ar
    31    28    23    1
    32    24    29    1
@<TRIPOS>MOLECULE
*****
 29 32 0 0 0
SMALL
GASTEIGER

@<TRIPOS>ATOM
      1 C          61.7922   90.1048    9.7840 C.3     1  UNL1        0.0233
      2 C          62.3205   89.0909   10.7549 C.3     1  UNL1        0.0956
      3 C          62.0282   87.6338   10.5510 C.3     1  UNL1        0.1135
      4 N          62.5565   86.6198   11.5220 N.am    1  UNL1       -0.2726
      5 C          62.2642   85.1628   11.3180 C.2     1  UNL1        0.2491
      6 O          61.4437   84.7197   10.1431 O.2     1  UNL1       -0.2699
      7 C          63.3771   87.0628   12.6968 C.3     1  UNL1        0.1152
      8 C          63.6693   88.5199   12.9008 C.3     1  UNL1        0.1153
      9 N          63.1410   89.5339   11.9298 N.am    1  UNL1       -0.2716
     10 C          63.4332   90.9909   12.1337 C.2     1  UNL1        0.2883
     11 O          62.9050   92.0049   11.1628 O.2     1  UNL1       -0.2664
     12 C          62.7925   84.1488   12.2889 C.ar    1  UNL1        0.0536
     13 C          62.3485   84.1795   13.7213 C.ar    1  UNL1        0.0045
     14 C          62.8767   83.1655   14.6923 C.ar    1  UNL1        0.0001
     15 C          63.8492   82.1208   14.2308 C.ar    1  UNL1        0.0000
     16 C          64.2932   82.0901   12.7984 C.ar    1  UNL1        0.0001
     17 C          63.7649   83.1041   11.8275 C.ar    1  UNL1        0.0045
     18 C          64.2538   91.4340   13.3087 C.2     1  UNL1        0.2502
     19 O          63.6329   91.5075   14.6721 O.2     1  UNL1       -0.2816
     20 C          65.6953   91.8036   13.1201 C.ar    1  UNL1        0.0656
     21 C          66.3933   91.9889   11.8054 C.ar    1  UNL1        0.1039
     22 N          67.8212   92.3526   12.0859 N.ar    1  UNL1       -0.2269
     23 C          68.0058   92.3920   13.5740 C.ar    1  UNL1        0.1407
     24 N          69.2005   92.6930   14.4296 N.ar    1  UNL1       -0.3374
     25 C          69.0813   92.6547   15.9243 C.ar    1  UNL1        0.0735
     26 C          67.7674   92.3154   16.5635 C.ar    1  UNL1        0.0186
     27 C          66.5727   92.0144   15.7079 C.ar    1  UNL1        0.0047
     28 C          66.6919   92.0527   14.2132 C.ar    1  UNL1        0.0387
     29 H          70.0628   92.9157   14.0100 H       1  UNL1        0.1674
@<TRIPOS>BOND
     1     2     1    1
     2     2     3    1
     3     3     4    1
     4     4     5   am
     5     5     6    2
     6     5    12    1
     7    12    13   ar
     8    13    14   ar
     9    14    15   ar
    10    15    16   ar
    11    16    17   ar
    12     4     7    1
    13     7     8    1
    14     8     9    1
    15     9    10   am
    16    10    11    2
    17    10    18    1
    18    18    19    2
    19    18    20    1
    20    20    21   ar
    21    21    22   ar
    22    22    23   ar
    23    23    24   ar
    24    24    25   ar
    25    25    26   ar
    26    26    27   ar
    27    27    28   ar
    28     9     2    1
    29    28    20   ar
    30    17    12   ar
    31    28    23    1
    32    24    29    1
@<TRIPOS>MOLECULE
*****
 29 32 0 0 0
SMALL
GASTEIGER

@<TRIPOS>ATOM
      1 C          62.3829   90.5490   10.6496 C.3     1  UNL1        0.0233
      2 C          62.6512   89.1757   11.1901 C.3     1  UNL1        0.0956
      3 C          62.4610   87.9740   10.3128 C.3     1  UNL1        0.1135
      4 N          62.7294   86.6007   10.8534 N.am    1  UNL1       -0.2726
      5 C          62.5391   85.3990    9.9760 C.2     1  UNL1        0.2491
      6 O          62.0806   85.5705    8.5582 O.2     1  UNL1       -0.2699
      7 C          63.1879   86.4292   12.2712 C.3     1  UNL1        0.1152
      8 C          63.3781   87.6309   13.1485 C.3     1  UNL1        0.1153
      9 N          63.1097   89.0041   12.6080 N.am    1  UNL1       -0.2716
     10 C          63.2999   90.2059   13.4852 C.2     1  UNL1        0.2883
     11 O          63.0316   91.5791   12.9447 O.2     1  UNL1       -0.2664
     12 C          62.8075   84.0258   10.5166 C.ar    1  UNL1        0.0536
     13 C          62.1211   83.5651   11.7682 C.ar    1  UNL1        0.0045
     14 C          62.3894   82.1918   12.3087 C.ar    1  UNL1        0.0001
     15 C          63.3442   81.2792   11.5976 C.ar    1  UNL1        0.0000
     16 C          64.0306   81.7400   10.3460 C.ar    1  UNL1        0.0001
     17 C          63.7622   83.1132    9.8055 C.ar    1  UNL1        0.0045
     18 C          63.7585   90.0344   14.9032 C.2     1  UNL1        0.2502
     19 O          63.5092   88.7410   15.6207 O.2     1  UNL1       -0.2816
     20 C          64.4664   91.1563   15.6034 C.ar    1  UNL1        0.0656
     21 C          63.9404   91.9388   16.7700 C.ar    1  UNL1        0.1039
     22 N          64.9735   92.9587   17.1475 N.ar    1  UNL1       -0.2269
     23 C          66.1379   92.8065   16.2142 C.ar    1  UNL1        0.1407
     24 N          67.4430   93.5384   16.1101 N.ar    1  UNL1       -0.3374
     25 C          68.4348   93.1563   15.0517 C.ar    1  UNL1        0.0735
     26 C          68.1214   92.0422   14.0973 C.ar    1  UNL1        0.0186
     27 C          66.8162   91.3104   14.2014 C.ar    1  UNL1        0.0047
     28 C          65.8245   91.6925   15.2599 C.ar    1  UNL1        0.0387
     29 H          67.6488   94.2696   16.7365 H       1  UNL1        0.1674
@<TRIPOS>BOND
     1     2     1    1
     2     2     3    1
     3     3     4    1
     4     4     5   am
     5     5     6    2
     6     5    12    1
     7    12    13   ar
     8    13    14   ar
     9    14    15   ar
    10    15    16   ar
    11    16    17   ar
    12     4     7    1
    13     7     8    1
    14     8     9    1
    15     9    10   am
    16    10    11    2
    17    10    18    1
    18    18    19    2
    19    18    20    1
    20    20    21   ar
    21    21    22   ar
    22    22    23   ar
    23    23    24   ar
    24    24    25   ar
    25    25    26   ar
    26    26    27   ar
    27    27    28   ar
    28     9     2    1
    29    28    20   ar
    30    17    12   ar
    31    28    23    1
    32    24    29    1
@<TRIPOS>MOLECULE
*****
 29 32 0 0 0
SMALL
GASTEIGER

@<TRIPOS>ATOM
      1 C          60.6181   86.6665    7.7566 C.3     1  UNL1        0.0233
      2 C          61.1947   86.5271    9.1343 C.3     1  UNL1        0.0956
      3 C          61.6651   85.1875    9.6185 C.3     1  UNL1        0.1135
      4 N          62.2417   85.0481   10.9962 N.am    1  UNL1       -0.2726
      5 C          62.7121   83.7085   11.4803 C.2     1  UNL1        0.2491
      6 O          62.6059   82.5084   10.5867 O.2     1  UNL1       -0.2699
      7 C          62.3479   86.2482   11.8898 C.3     1  UNL1        0.1152
      8 C          61.8775   87.5877   11.4056 C.3     1  UNL1        0.1153
      9 N          61.3009   87.7271   10.0279 N.am    1  UNL1       -0.2716
     10 C          60.8305   89.0666    9.5437 C.2     1  UNL1        0.2883
     11 O          60.2539   89.2060    8.1660 O.2     1  UNL1       -0.2664
     12 C          63.2887   83.5691   12.8580 C.ar    1  UNL1        0.0536
     13 C          64.6435   84.1350   13.1648 C.ar    1  UNL1        0.0045
     14 C          65.2201   83.9956   14.5425 C.ar    1  UNL1        0.0001
     15 C          64.4419   83.2903   15.6134 C.ar    1  UNL1        0.0000
     16 C          63.0871   82.7244   15.3066 C.ar    1  UNL1        0.0001
     17 C          62.5105   82.8638   13.9289 C.ar    1  UNL1        0.0045
     18 C          60.9368   90.2668   10.4374 C.2     1  UNL1        0.2502
     19 O          59.6966   90.8927   11.0030 O.2     1  UNL1       -0.2816
     20 C          62.2832   90.8409   10.7652 C.ar    1  UNL1        0.0656
     21 C          63.1734   91.5952    9.8225 C.ar    1  UNL1        0.1039
     22 N          64.4162   91.9820   10.5680 N.ar    1  UNL1       -0.2269
     23 C          64.2941   91.4668   11.9715 C.ar    1  UNL1        0.1407
     24 N          65.2130   91.5487   13.1542 N.ar    1  UNL1       -0.3374
     25 C          64.8136   90.9255   14.4588 C.ar    1  UNL1        0.0735
     26 C          63.4953   90.2203   14.5807 C.ar    1  UNL1        0.0186
     27 C          62.5764   90.1383   13.3979 C.ar    1  UNL1        0.0047
     28 C          62.9758   90.7616   12.0934 C.ar    1  UNL1        0.0387
     29 H          66.0782   92.0116   13.0742 H       1  UNL1        0.1674
@<TRIPOS>BOND
     1     2     1    1
     2     2     3    1
     3     3     4    1
     4     4     5   am
     5     5     6    2
     6     5    12    1
     7    12    13   ar
     8    13    14   ar
     9    14    15   ar
    10    15    16   ar
    11    16    17   ar
    12     4     7    1
    13     7     8    1
    14     8     9    1
    15     9    10   am
    16    10    11    2
    17    10    18    1
    18    18    19    2
    19    18    20    1
    20    20    21   ar
    21    21    22   ar
    22    22    23   ar
    23    23    24   ar
    24    24    25   ar
    25    25    26   ar
    26    26    27   ar
    27    27    28   ar
    28     9     2    1
    29    28    20   ar
    30    17    12   ar
    31    28    23    1
    32    24    29    1
