@<TRIPOS>MOLECULE
*****
 30 34 0 0 0
SMALL
GASTEIGER

@<TRIPOS>ATOM
      1 N          63.6450   88.9660   12.9507 N.pl3   1  UNL1       -0.2892
      2 C          64.2130   88.9266   14.3383 C.3     1  UNL1        0.1095
      3 C          64.8145   90.1631   14.9379 C.3     1  UNL1        0.0939
      4 N          64.8480   91.4389   14.1497 N.3     1  UNL1       -0.2695
      5 C          64.2799   91.4783   12.7620 C.3     1  UNL1        0.0939
      6 C          63.6784   90.2419   12.1625 C.3     1  UNL1        0.1095
      7 C          61.9793   90.4566   10.6475 C.3     1  UNL1        0.1306
      8 N          61.6284   89.0209   10.3911 N.ar    1  UNL1       -0.3205
      9 C          60.7211   88.5147    9.3091 C.ar    1  UNL1        0.0795
     10 C          59.9467   89.2215    8.2365 C.ar    1  UNL1        0.0204
     11 C          59.1061   88.4339    7.2757 C.ar    1  UNL1        0.0222
     12 C          59.0401   86.9395    7.3876 C.ar    1  UNL1        0.0990
     13 N          59.8146   86.2328    8.4602 N.ar    1  UNL1       -0.2408
     14 C          60.6551   87.0204    9.4210 C.ar    1  UNL1        0.1161
     15 C          61.5215   86.6030   10.5722 C.ar    1  UNL1        0.1205
     16 N          61.8404   85.2569   11.1519 N.ar    1  UNL1       -0.2208
     17 C          62.7609   85.1471   12.3312 C.ar    1  UNL1        0.2002
     18 N          63.3624   86.3835   12.9308 N.ar    1  UNL1       -0.2075
     19 C          63.0435   87.7297   12.3511 C.ar    1  UNL1        0.1510
     20 C          62.1230   87.8394   11.1718 C.ar    1  UNL1        0.1114
     21 C          65.4495   92.6753   14.7493 C.3     1  UNL1        0.0769
     22 C          66.6949   93.2662   14.1578 C.3     1  UNL1        0.0437
     23 C          66.7911   93.4851   12.6770 C.ar    1  UNL1       -0.0184
     24 C          66.2792   94.7588   12.0724 C.ar    1  UNL1       -0.0018
     25 C          66.3755   94.9777   10.5915 C.ar    1  UNL1        0.0316
     26 C          66.9835   93.9229    9.7153 C.ar    1  UNL1        0.1674
     27 F          67.0797   94.1418    8.2345 F       1  UNL1       -0.2018
     28 C          67.4954   92.6491   10.3200 C.ar    1  UNL1        0.1671
     29 F          68.1034   91.5943    9.4439 F       1  UNL1       -0.2018
     30 C          67.3991   92.4303   11.8008 C.ar    1  UNL1        0.0277
@<TRIPOS>BOND
     1     7     8    1
     2     8     9   ar
     3     9    10   ar
     4    10    11   ar
     5    11    12   ar
     6    12    13   ar
     7    13    14   ar
     8    14    15   ar
     9    15    16   ar
    10    16    17   ar
    11    17    18   ar
    12    18    19   ar
    13    19     1    1
    14     1     2    1
    15     2     3    1
    16     3     4    1
    17     4    21    1
    18    21    22    1
    19    22    23    1
    20    23    24   ar
    21    24    25   ar
    22    25    26   ar
    23    26    27    1
    24    26    28   ar
    25    28    29    1
    26    28    30   ar
    27     4     5    1
    28     5     6    1
    29    19    20   ar
    30    20     8   ar
    31    14     9   ar
    32    20    15   ar
    33     6     1    1
    34    30    23   ar
@<TRIPOS>MOLECULE
*****
 30 34 0 0 0
SMALL
GASTEIGER

@<TRIPOS>ATOM
      1 N          63.4776   91.2536   11.2752 N.pl3   1  UNL1       -0.2892
      2 C          62.7187   90.8124   12.4914 C.3     1  UNL1        0.1095
      3 C          61.6408   89.7765   12.3679 C.3     1  UNL1        0.0939
      4 N          61.3218   89.1820   11.0282 N.3     1  UNL1       -0.2695
      5 C          62.0808   89.6233    9.8120 C.3     1  UNL1        0.0939
      6 C          63.1586   90.6590    9.9355 C.3     1  UNL1        0.1095
      7 C          64.6645   90.2070   14.0675 C.3     1  UNL1        0.1306
      8 N          65.5547   91.3804   13.7833 N.ar    1  UNL1       -0.3205
      9 C          66.6834   91.8603   14.6469 C.ar    1  UNL1        0.0795
     10 C          67.2302   91.3627   15.9520 C.ar    1  UNL1        0.0204
     11 C          68.3925   92.0612   16.5932 C.ar    1  UNL1        0.0222
     12 C          69.0080   93.2572   15.9293 C.ar    1  UNL1        0.0990
     13 N          68.4611   93.7548   14.6242 N.ar    1  UNL1       -0.2408
     14 C          67.2988   93.0563   13.9830 C.ar    1  UNL1        0.1161
     15 C          66.5505   93.3155   12.7091 C.ar    1  UNL1        0.1205
     16 N          66.7114   94.3609   11.6455 N.ar    1  UNL1       -0.2208
     17 C          65.7943   94.3706   10.4585 C.ar    1  UNL1        0.2002
     18 N          64.7164   93.3348   10.3351 N.ar    1  UNL1       -0.2075
     19 C          64.5555   92.2894   11.3987 C.ar    1  UNL1        0.1510
     20 C          65.4726   92.2797   12.5857 C.ar    1  UNL1        0.1114
     21 C          60.2439   88.1462   10.9048 C.3     1  UNL1        0.0769
     22 C          60.3281   87.1002    9.8330 C.3     1  UNL1        0.0437
     23 C          61.4307   86.0836    9.8621 C.ar    1  UNL1       -0.0184
     24 C          62.2000   85.7757    8.6119 C.ar    1  UNL1       -0.0018
     25 C          63.3027   84.7591    8.6411 C.ar    1  UNL1        0.0316
     26 C          63.6359   84.0504    9.9205 C.ar    1  UNL1        0.1674
     27 F          64.7385   83.0339    9.9496 F       1  UNL1       -0.2018
     28 C          62.8664   84.3584   11.1707 C.ar    1  UNL1        0.1671
     29 F          63.1996   83.6498   12.4501 F       1  UNL1       -0.2018
     30 C          61.7639   85.3749   11.1416 C.ar    1  UNL1        0.0277
@<TRIPOS>BOND
     1     7     8    1
     2     8     9   ar
     3     9    10   ar
     4    10    11   ar
     5    11    12   ar
     6    12    13   ar
     7    13    14   ar
     8    14    15   ar
     9    15    16   ar
    10    16    17   ar
    11    17    18   ar
    12    18    19   ar
    13    19     1    1
    14     1     2    1
    15     2     3    1
    16     3     4    1
    17     4    21    1
    18    21    22    1
    19    22    23    1
    20    23    24   ar
    21    24    25   ar
    22    25    26   ar
    23    26    27    1
    24    26    28   ar
    25    28    29    1
    26    28    30   ar
    27     4     5    1
    28     5     6    1
    29    19    20   ar
    30    20     8   ar
    31    14     9   ar
    32    20    15   ar
    33     6     1    1
    34    30    23   ar
@<TRIPOS>MOLECULE
*****
 30 34 0 0 0
SMALL
GASTEIGER

@<TRIPOS>ATOM
      1 N          63.8268   90.1364   12.9728 N.pl3   1  UNL1       -0.2892
      2 C          64.1698   88.7417   13.4050 C.3     1  UNL1        0.1095
      3 C          63.3817   87.5785   12.8795 C.3     1  UNL1        0.0939
      4 N          62.2507   87.8102   11.9219 N.3     1  UNL1       -0.2695
      5 C          61.9077   89.2050   11.4896 C.3     1  UNL1        0.0939
      6 C          62.6957   90.3681   12.0151 C.3     1  UNL1        0.1095
      7 C          64.1877   91.6292   10.1546 C.3     1  UNL1        0.1306
      8 N          64.9121   92.5590   11.0823 N.ar    1  UNL1       -0.3205
      9 C          65.5971   93.8356   10.6934 C.ar    1  UNL1        0.0795
     10 C          65.7598   94.5248    9.3711 C.ar    1  UNL1        0.0204
     11 C          66.5125   95.8196    9.2879 C.ar    1  UNL1        0.0222
     12 C          67.1026   96.4251   10.5269 C.ar    1  UNL1        0.0990
     13 N          66.9399   95.7358   11.8492 N.ar    1  UNL1       -0.2408
     14 C          66.1871   94.4411   11.9324 C.ar    1  UNL1        0.1161
     15 C          65.8668   93.5387   13.0870 C.ar    1  UNL1        0.1205
     16 N          66.1908   93.6260   14.5490 N.ar    1  UNL1       -0.2208
     17 C          65.7269   92.5500   15.4856 C.ar    1  UNL1        0.2002
     18 N          64.9389   91.3869   14.9601 N.ar    1  UNL1       -0.2075
     19 C          64.6148   91.2996   13.4982 C.ar    1  UNL1        0.1510
     20 C          65.0788   92.3756   12.5616 C.ar    1  UNL1        0.1114
     21 C          61.4627   86.6470   11.3965 C.3     1  UNL1        0.0769
     22 C          62.1527   85.5600   10.6268 C.3     1  UNL1        0.0437
     23 C          62.7206   84.3742   11.3489 C.ar    1  UNL1       -0.0184
     24 C          63.5861   83.3932   10.6152 C.ar    1  UNL1       -0.0018
     25 C          64.1540   82.2074   11.3373 C.ar    1  UNL1        0.0316
     26 C          63.8563   82.0026   12.7931 C.ar    1  UNL1        0.1674
     27 F          64.4242   80.8168   13.5152 F       1  UNL1       -0.2018
     28 C          62.9907   82.9837   13.5269 C.ar    1  UNL1        0.1671
     29 F          62.6930   82.7789   14.9827 F       1  UNL1       -0.2018
     30 C          62.4229   84.1694   12.8048 C.ar    1  UNL1        0.0277
@<TRIPOS>BOND
     1     7     8    1
     2     8     9   ar
     3     9    10   ar
     4    10    11   ar
     5    11    12   ar
     6    12    13   ar
     7    13    14   ar
     8    14    15   ar
     9    15    16   ar
    10    16    17   ar
    11    17    18   ar
    12    18    19   ar
    13    19     1    1
    14     1     2    1
    15     2     3    1
    16     3     4    1
    17     4    21    1
    18    21    22    1
    19    22    23    1
    20    23    24   ar
    21    24    25   ar
    22    25    26   ar
    23    26    27    1
    24    26    28   ar
    25    28    29    1
    26    28    30   ar
    27     4     5    1
    28     5     6    1
    29    19    20   ar
    30    20     8   ar
    31    14     9   ar
    32    20    15   ar
    33     6     1    1
    34    30    23   ar
@<TRIPOS>MOLECULE
*****
 30 34 0 0 0
SMALL
GASTEIGER

@<TRIPOS>ATOM
      1 N          62.2070   88.7100   11.1036 N.pl3   1  UNL1       -0.2892
      2 C          61.0648   89.6221   10.7668 C.3     1  UNL1        0.1095
      3 C          60.2067   89.3387    9.5694 C.3     1  UNL1        0.0939
      4 N          60.4909   88.1434    8.7090 N.3     1  UNL1       -0.2695
      5 C          61.6331   87.2313    9.0459 C.3     1  UNL1        0.0939
      6 C          62.4911   87.5146   10.2431 C.3     1  UNL1        0.1095
      7 C          63.3216   91.5423   10.0856 C.3     1  UNL1        0.1306
      8 N          64.0056   91.4099   11.4140 N.ar    1  UNL1       -0.3205
      9 C          64.9510   92.4033   12.0218 C.ar    1  UNL1        0.0795
     10 C          65.4658   93.7259   11.5363 C.ar    1  UNL1        0.0204
     11 C          66.4235   94.5135   12.3804 C.ar    1  UNL1        0.0222
     12 C          66.8665   93.9784   13.7099 C.ar    1  UNL1        0.0990
     13 N          66.3517   92.6558   14.1953 N.ar    1  UNL1       -0.2408
     14 C          65.3940   91.8682   13.3512 C.ar    1  UNL1        0.1161
     15 C          64.7223   90.5442   13.5651 C.ar    1  UNL1        0.1205
     16 N          64.7812   89.5598   14.6954 N.ar    1  UNL1       -0.2208
     17 C          63.9820   88.2922   14.6284 C.ar    1  UNL1        0.2002
     18 N          63.1239   88.0090   13.4311 N.ar    1  UNL1       -0.2075
     19 C          63.0651   88.9933   12.3008 C.ar    1  UNL1        0.1510
     20 C          63.8643   90.2609   12.3678 C.ar    1  UNL1        0.1114
     21 C          59.6328   87.8601    7.5118 C.3     1  UNL1        0.0769
     22 C          58.5726   88.8383    7.1005 C.3     1  UNL1        0.0437
     23 C          58.8965   89.9280    6.1219 C.ar    1  UNL1       -0.0184
     24 C          57.8082   90.8243    5.6102 C.ar    1  UNL1       -0.0018
     25 C          58.1321   91.9141    4.6315 C.ar    1  UNL1        0.0316
     26 C          59.5444   92.1073    4.1646 C.ar    1  UNL1        0.1674
     27 F          59.8683   93.1970    3.1860 F       1  UNL1       -0.2018
     28 C          60.6328   91.2109    4.6764 C.ar    1  UNL1        0.1671
     29 F          62.0451   91.4042    4.2095 F       1  UNL1       -0.2018
     30 C          60.3089   90.1213    5.6549 C.ar    1  UNL1        0.0277
@<TRIPOS>BOND
     1     7     8    1
     2     8     9   ar
     3     9    10   ar
     4    10    11   ar
     5    11    12   ar
     6    12    13   ar
     7    13    14   ar
     8    14    15   ar
     9    15    16   ar
    10    16    17   ar
    11    17    18   ar
    12    18    19   ar
    13    19     1    1
    14     1     2    1
    15     2     3    1
    16     3     4    1
    17     4    21    1
    18    21    22    1
    19    22    23    1
    20    23    24   ar
    21    24    25   ar
    22    25    26   ar
    23    26    27    1
    24    26    28   ar
    25    28    29    1
    26    28    30   ar
    27     4     5    1
    28     5     6    1
    29    19    20   ar
    30    20     8   ar
    31    14     9   ar
    32    20    15   ar
    33     6     1    1
    34    30    23   ar
@<TRIPOS>MOLECULE
*****
 30 34 0 0 0
SMALL
GASTEIGER

@<TRIPOS>ATOM
      1 N          63.3509   88.9563   12.5586 N.pl3   1  UNL1       -0.2892
      2 C          63.9164   88.7090   13.9256 C.3     1  UNL1        0.1095
      3 C          64.5661   89.8294   14.6824 C.3     1  UNL1        0.0939
      4 N          64.6502   91.1971   14.0721 N.3     1  UNL1       -0.2695
      5 C          64.0846   91.4444   12.7050 C.3     1  UNL1        0.0939
      6 C          63.4350   90.3240   11.9483 C.3     1  UNL1        0.1095
      7 C          64.5071   86.5765   14.3753 C.3     1  UNL1        0.1306
      8 N          63.6985   85.8179   13.3651 N.ar    1  UNL1       -0.3205
      9 C          63.5357   84.3280   13.3053 C.ar    1  UNL1        0.0795
     10 C          64.0815   83.2235   14.1609 C.ar    1  UNL1        0.0204
     11 C          63.7390   81.7962   13.8518 C.ar    1  UNL1        0.0222
     12 C          62.8507   81.4735   12.6870 C.ar    1  UNL1        0.0990
     13 N          62.3048   82.5779   11.8314 N.ar    1  UNL1       -0.2408
     14 C          62.6473   84.0052   12.1405 C.ar    1  UNL1        0.1161
     15 C          62.2612   85.2956   11.4805 C.ar    1  UNL1        0.1205
     16 N          61.4019   85.5953   10.2881 N.ar    1  UNL1       -0.2208
     17 C          61.1923   87.0153    9.8525 C.ar    1  UNL1        0.2002
     18 N          61.8420   88.1356   10.6093 N.ar    1  UNL1       -0.2075
     19 C          62.7012   87.8360   11.8017 C.ar    1  UNL1        0.1510
     20 C          62.9108   86.4160   12.2373 C.ar    1  UNL1        0.1114
     21 C          65.2998   92.3174   14.8289 C.3     1  UNL1        0.0769
     22 C          66.5658   92.9355   14.3138 C.3     1  UNL1        0.0437
     23 C          66.7156   93.2293   12.8505 C.ar    1  UNL1       -0.0184
     24 C          66.2391   94.5388   12.2958 C.ar    1  UNL1       -0.0018
     25 C          66.3889   94.8326   10.8324 C.ar    1  UNL1        0.0316
     26 C          67.0153   93.8166    9.9239 C.ar    1  UNL1        0.1674
     27 F          67.1651   94.1104    8.4606 F       1  UNL1       -0.2018
     28 C          67.4919   92.5070   10.4786 C.ar    1  UNL1        0.1671
     29 F          68.1183   91.4911    9.5700 F       1  UNL1       -0.2018
     30 C          67.3420   92.2133   11.9418 C.ar    1  UNL1        0.0277
@<TRIPOS>BOND
     1     7     8    1
     2     8     9   ar
     3     9    10   ar
     4    10    11   ar
     5    11    12   ar
     6    12    13   ar
     7    13    14   ar
     8    14    15   ar
     9    15    16   ar
    10    16    17   ar
    11    17    18   ar
    12    18    19   ar
    13    19     1    1
    14     1     2    1
    15     2     3    1
    16     3     4    1
    17     4    21    1
    18    21    22    1
    19    22    23    1
    20    23    24   ar
    21    24    25   ar
    22    25    26   ar
    23    26    27    1
    24    26    28   ar
    25    28    29    1
    26    28    30   ar
    27     4     5    1
    28     5     6    1
    29    19    20   ar
    30    20     8   ar
    31    14     9   ar
    32    20    15   ar
    33     6     1    1
    34    30    23   ar
@<TRIPOS>MOLECULE
*****
 30 34 0 0 0
SMALL
GASTEIGER

@<TRIPOS>ATOM
      1 N          72.2346   76.2679   15.1649 N.pl3   1  UNL1       -0.2892
      2 C          73.2988   75.2140   15.2459 C.3     1  UNL1        0.1095
      3 C          72.9155   73.7702   15.3827 C.3     1  UNL1        0.0939
      4 N          71.4681   73.3804   15.4385 N.3     1  UNL1       -0.2695
      5 C          70.4039   74.4345   15.3575 C.3     1  UNL1        0.0939
      6 C          70.7872   75.8781   15.2207 C.3     1  UNL1        0.1095
      7 C          71.9445   76.4164   11.9720 C.3     1  UNL1        0.1306
      8 N          72.3645   77.8183   12.3012 N.ar    1  UNL1       -0.3205
      9 C          72.5689   78.9316   11.3169 C.ar    1  UNL1        0.0795
     10 C          72.4302   78.9899    9.8245 C.ar    1  UNL1        0.0204
     11 C          72.7072   80.2709    9.0951 C.ar    1  UNL1        0.0222
     12 C          73.1228   81.4937    9.8580 C.ar    1  UNL1        0.0990
     13 N          73.2615   81.4354   11.3504 N.ar    1  UNL1       -0.2408
     14 C          72.9845   80.1543   12.0799 C.ar    1  UNL1        0.1161
     15 C          73.0370   79.7967   13.5357 C.ar    1  UNL1        0.1205
     16 N          73.3842   80.5992   14.7544 N.ar    1  UNL1       -0.2208
     17 C          73.3482   79.9580   16.1100 C.ar    1  UNL1        0.2002
     18 N          72.9650   78.5142   16.2468 N.ar    1  UNL1       -0.2075
     19 C          72.6178   77.7117   15.0281 C.ar    1  UNL1        0.1510
     20 C          72.6538   78.3529   13.6725 C.ar    1  UNL1        0.1114
     21 C          71.0850   71.9367   15.5753 C.3     1  UNL1        0.0769
     22 C          71.6636   70.9154   14.6415 C.3     1  UNL1        0.0437
     23 C          71.2782   70.9208   13.1918 C.ar    1  UNL1       -0.0184
     24 C          72.3149   71.1870   12.1411 C.ar    1  UNL1       -0.0018
     25 C          71.9294   71.1924   10.6914 C.ar    1  UNL1        0.0316
     26 C          70.5071   70.9318   10.2927 C.ar    1  UNL1        0.1674
     27 F          70.1216   70.9373    8.8430 F       1  UNL1       -0.2018
     28 C          69.4702   70.6657   11.3435 C.ar    1  UNL1        0.1671
     29 F          68.0479   70.4050   10.9447 F       1  UNL1       -0.2018
     30 C          69.8558   70.6602   12.7930 C.ar    1  UNL1        0.0277
@<TRIPOS>BOND
     1     7     8    1
     2     8     9   ar
     3     9    10   ar
     4    10    11   ar
     5    11    12   ar
     6    12    13   ar
     7    13    14   ar
     8    14    15   ar
     9    15    16   ar
    10    16    17   ar
    11    17    18   ar
    12    18    19   ar
    13    19     1    1
    14     1     2    1
    15     2     3    1
    16     3     4    1
    17     4    21    1
    18    21    22    1
    19    22    23    1
    20    23    24   ar
    21    24    25   ar
    22    25    26   ar
    23    26    27    1
    24    26    28   ar
    25    28    29    1
    26    28    30   ar
    27     4     5    1
    28     5     6    1
    29    19    20   ar
    30    20     8   ar
    31    14     9   ar
    32    20    15   ar
    33     6     1    1
    34    30    23   ar
@<TRIPOS>MOLECULE
*****
 30 34 0 0 0
SMALL
GASTEIGER

@<TRIPOS>ATOM
      1 N          63.6145   88.7293   14.7056 N.pl3   1  UNL1       -0.2892
      2 C          64.9216   89.4393   14.8988 C.3     1  UNL1        0.1095
      3 C          65.2580   90.6337   14.0561 C.3     1  UNL1        0.0939
      4 N          64.2874   91.1181   13.0201 N.3     1  UNL1       -0.2695
      5 C          62.9803   90.4081   12.8269 C.3     1  UNL1        0.0939
      6 C          62.6439   89.2137   13.6696 C.3     1  UNL1        0.1095
      7 C          63.5284   86.6051   12.3012 C.3     1  UNL1        0.1306
      8 N          63.2091   85.7362   13.4816 N.ar    1  UNL1       -0.3205
      9 C          62.9354   84.2619   13.4428 C.ar    1  UNL1        0.0795
     10 C          62.8977   83.2776   12.3116 C.ar    1  UNL1        0.0204
     11 C          62.5893   81.8349   12.5829 C.ar    1  UNL1        0.0222
     12 C          62.3186   81.3767   13.9853 C.ar    1  UNL1        0.0990
     13 N          62.3563   82.3610   15.1164 N.ar    1  UNL1       -0.2408
     14 C          62.6647   83.8037   14.8452 C.ar    1  UNL1        0.1161
     15 C          62.7711   84.9948   15.7507 C.ar    1  UNL1        0.1205
     16 N          62.6051   85.1461   17.2337 N.ar    1  UNL1       -0.2208
     17 C          62.7756   86.4918   17.8741 C.ar    1  UNL1        0.2002
     18 N          63.1120   87.6862   17.0314 N.ar    1  UNL1       -0.2075
     19 C          63.2781   87.5349   15.5483 C.ar    1  UNL1        0.1510
     20 C          63.1076   86.1892   14.9080 C.ar    1  UNL1        0.1114
     21 C          64.6239   92.3125   12.1774 C.3     1  UNL1        0.0769
     22 C          65.9998   92.9072   12.2346 C.3     1  UNL1        0.0437
     23 C          66.4507   93.8586   11.1662 C.ar    1  UNL1       -0.0184
     24 C          66.2347   95.3333   11.3354 C.ar    1  UNL1       -0.0018
     25 C          66.6856   96.2847   10.2669 C.ar    1  UNL1        0.0316
     26 C          67.3524   95.7615    9.0294 C.ar    1  UNL1        0.1674
     27 F          67.8033   96.7130    7.9610 F       1  UNL1       -0.2018
     28 C          67.5684   94.2868    8.8602 C.ar    1  UNL1        0.1671
     29 F          68.2352   93.7635    7.6227 F       1  UNL1       -0.2018
     30 C          67.1175   93.3354    9.9286 C.ar    1  UNL1        0.0277
@<TRIPOS>BOND
     1     7     8    1
     2     8     9   ar
     3     9    10   ar
     4    10    11   ar
     5    11    12   ar
     6    12    13   ar
     7    13    14   ar
     8    14    15   ar
     9    15    16   ar
    10    16    17   ar
    11    17    18   ar
    12    18    19   ar
    13    19     1    1
    14     1     2    1
    15     2     3    1
    16     3     4    1
    17     4    21    1
    18    21    22    1
    19    22    23    1
    20    23    24   ar
    21    24    25   ar
    22    25    26   ar
    23    26    27    1
    24    26    28   ar
    25    28    29    1
    26    28    30   ar
    27     4     5    1
    28     5     6    1
    29    19    20   ar
    30    20     8   ar
    31    14     9   ar
    32    20    15   ar
    33     6     1    1
    34    30    23   ar
@<TRIPOS>MOLECULE
*****
 30 34 0 0 0
SMALL
GASTEIGER

@<TRIPOS>ATOM
      1 N          64.2329   90.5236   13.0906 N.pl3   1  UNL1       -0.2892
      2 C          63.2064   90.6453   12.0037 C.3     1  UNL1        0.1095
      3 C          62.4113   89.4441   11.5851 C.3     1  UNL1        0.0939
      4 N          62.6428   88.1213   12.2534 N.3     1  UNL1       -0.2695
      5 C          63.6693   87.9996   13.3403 C.3     1  UNL1        0.0939
      6 C          64.4644   89.2007   13.7589 C.3     1  UNL1        0.1095
      7 C          64.3254   91.9188   10.2017 C.3     1  UNL1        0.1306
      8 N          65.0958   92.9002   11.0344 N.ar    1  UNL1       -0.3205
      9 C          65.7119   94.1779   10.5467 C.ar    1  UNL1        0.0795
     10 C          65.7490   94.8213    9.1922 C.ar    1  UNL1        0.0204
     11 C          66.4566   96.1302    9.0028 C.ar    1  UNL1        0.0222
     12 C          67.1270   96.7959   10.1679 C.ar    1  UNL1        0.0990
     13 N          67.0899   96.1525   11.5224 N.ar    1  UNL1       -0.2408
     14 C          66.3823   94.8435   11.7118 C.ar    1  UNL1        0.1161
     15 C          66.1806   93.9772   12.9195 C.ar    1  UNL1        0.1205
     16 N          66.6181   94.1268   14.3465 N.ar    1  UNL1       -0.2208
     17 C          66.2606   93.0753   15.3547 C.ar    1  UNL1        0.2002
     18 N          65.4655   91.8742   14.9361 N.ar    1  UNL1       -0.2075
     19 C          65.0280   91.7246   13.5092 C.ar    1  UNL1        0.1510
     20 C          65.3855   92.7761   12.5009 C.ar    1  UNL1        0.1114
     21 C          61.8477   86.9203   11.8348 C.3     1  UNL1        0.0769
     22 C          62.5198   85.7905   11.1123 C.3     1  UNL1        0.0437
     23 C          62.2078   85.5327    9.6680 C.ar    1  UNL1       -0.0184
     24 C          63.2032   84.8200    8.8013 C.ar    1  UNL1       -0.0018
     25 C          62.8911   84.5622    7.3569 C.ar    1  UNL1        0.0316
     26 C          61.5838   85.0172    6.7792 C.ar    1  UNL1        0.1674
     27 F          61.2718   84.7594    5.3348 F       1  UNL1       -0.2018
     28 C          60.5883   85.7300    7.6459 C.ar    1  UNL1        0.1671
     29 F          59.2810   86.1849    7.0682 F       1  UNL1       -0.2018
     30 C          60.9004   85.9877    9.0902 C.ar    1  UNL1        0.0277
@<TRIPOS>BOND
     1     7     8    1
     2     8     9   ar
     3     9    10   ar
     4    10    11   ar
     5    11    12   ar
     6    12    13   ar
     7    13    14   ar
     8    14    15   ar
     9    15    16   ar
    10    16    17   ar
    11    17    18   ar
    12    18    19   ar
    13    19     1    1
    14     1     2    1
    15     2     3    1
    16     3     4    1
    17     4    21    1
    18    21    22    1
    19    22    23    1
    20    23    24   ar
    21    24    25   ar
    22    25    26   ar
    23    26    27    1
    24    26    28   ar
    25    28    29    1
    26    28    30   ar
    27     4     5    1
    28     5     6    1
    29    19    20   ar
    30    20     8   ar
    31    14     9   ar
    32    20    15   ar
    33     6     1    1
    34    30    23   ar
@<TRIPOS>MOLECULE
*****
 30 34 0 0 0
SMALL
GASTEIGER

@<TRIPOS>ATOM
      1 N          63.3630   88.0900   13.7546 N.pl3   1  UNL1       -0.2892
      2 C          63.7992   89.4189   13.2128 C.3     1  UNL1        0.1095
      3 C          64.0835   90.5545   14.1508 C.3     1  UNL1        0.0939
      4 N          63.9315   90.3611   15.6304 N.3     1  UNL1       -0.2695
      5 C          63.4953   89.0322   16.1723 C.3     1  UNL1        0.0939
      6 C          63.2111   87.8966   15.2344 C.3     1  UNL1        0.1095
      7 C          61.5376   89.7599   11.7101 C.3     1  UNL1        0.1306
      8 N          61.5226   88.3975   11.0827 N.ar    1  UNL1       -0.3205
      9 C          60.8069   88.0158    9.8209 C.ar    1  UNL1        0.0795
     10 C          59.9552   88.8056    8.8719 C.ar    1  UNL1        0.0204
     11 C          59.3594   88.1397    7.6671 C.ar    1  UNL1        0.0222
     12 C          59.6152   86.6840    7.4114 C.ar    1  UNL1        0.0990
     13 N          60.4668   85.8941    8.3605 N.ar    1  UNL1       -0.2408
     14 C          61.0627   86.5600    9.5652 C.ar    1  UNL1        0.1161
     15 C          61.9365   86.0421   10.6689 C.ar    1  UNL1        0.1205
     16 N          62.5101   84.6831   10.9411 N.ar    1  UNL1       -0.2208
     17 C          63.3680   84.4598   12.1512 C.ar    1  UNL1        0.2002
     18 N          63.6523   85.5954   13.0890 N.ar    1  UNL1       -0.2075
     19 C          63.0787   86.9544   12.8168 C.ar    1  UNL1        0.1510
     20 C          62.2208   87.1777   11.6068 C.ar    1  UNL1        0.1114
     21 C          64.2158   91.4967   16.5683 C.3     1  UNL1        0.0769
     22 C          64.9579   92.7053   16.0796 C.3     1  UNL1        0.0437
     23 C          66.3428   92.5603   15.5220 C.ar    1  UNL1       -0.0184
     24 C          67.5340   92.7580   16.4117 C.ar    1  UNL1       -0.0018
     25 C          68.9190   92.6131   15.8541 C.ar    1  UNL1        0.0316
     26 C          69.1127   92.2704   14.4067 C.ar    1  UNL1        0.1674
     27 F          70.4976   92.1254   13.8491 F       1  UNL1       -0.2018
     28 C          67.9214   92.0726   13.5168 C.ar    1  UNL1        0.1671
     29 F          68.1151   91.7299   12.0694 F       1  UNL1       -0.2018
     30 C          66.5365   92.2176   14.0745 C.ar    1  UNL1        0.0277
@<TRIPOS>BOND
     1     7     8    1
     2     8     9   ar
     3     9    10   ar
     4    10    11   ar
     5    11    12   ar
     6    12    13   ar
     7    13    14   ar
     8    14    15   ar
     9    15    16   ar
    10    16    17   ar
    11    17    18   ar
    12    18    19   ar
    13    19     1    1
    14     1     2    1
    15     2     3    1
    16     3     4    1
    17     4    21    1
    18    21    22    1
    19    22    23    1
    20    23    24   ar
    21    24    25   ar
    22    25    26   ar
    23    26    27    1
    24    26    28   ar
    25    28    29    1
    26    28    30   ar
    27     4     5    1
    28     5     6    1
    29    19    20   ar
    30    20     8   ar
    31    14     9   ar
    32    20    15   ar
    33     6     1    1
    34    30    23   ar
