@<TRIPOS>MOLECULE
*****
 25 28 0 0 0
SMALL
GASTEIGER

@<TRIPOS>ATOM
      1 C          63.0344   84.0290   11.8063 C.ar    1  UNL1       -0.0157
      2 C          62.0345   85.0075   12.3475 C.ar    1  UNL1       -0.0038
      3 C          61.3798   85.9961   11.4289 C.ar    1  UNL1        0.0019
      4 C          61.7250   86.0064    9.9692 C.ar    1  UNL1        0.0275
      5 C          62.7248   85.0279    9.4280 C.ar    1  UNL1        0.1398
      6 F          63.0700   85.0381    7.9683 F       1  UNL1       -0.2042
      7 C          63.3795   84.0393   10.3466 C.ar    1  UNL1        0.0257
      8 C          61.0702   86.9951    9.0506 C.ar    1  UNL1        0.0021
      9 C          61.2087   88.4659    9.3102 C.ar    1  UNL1       -0.0003
     10 C          60.5539   89.4547    8.3917 C.ar    1  UNL1       -0.0043
     11 C          59.7606   88.9725    7.2134 C.ar    1  UNL1       -0.0225
     12 C          59.6222   87.5016    6.9538 C.ar    1  UNL1       -0.0043
     13 C          60.2769   86.5129    7.8723 C.ar    1  UNL1       -0.0003
     14 C          59.1059   89.9611    6.2949 C.3     1  UNL1        0.0223
     15 C          57.6112   89.9964    6.1736 C.3     1  UNL1        0.0044
     16 C          56.9564   90.9851    5.2549 C.3     1  UNL1        0.0003
     17 C          57.7963   91.9385    4.4577 C.3     1  UNL1        0.0000
     18 C          59.2910   91.9032    4.5790 C.3     1  UNL1        0.0003
     19 C          59.9458   90.9145    5.4976 C.3     1  UNL1        0.0044
     20 C          63.6892   83.0403   12.7249 C.3     1  UNL1        0.0509
     21 C          64.2849   81.7554   13.2191 C.3     1  UNL1        0.0100
     22 C          63.7467   81.8440   11.8217 C.3     1  UNL1        0.0100
     23 O          64.9203   84.9528   13.9807 O.co2   1  UNL1       -0.5489
     24 C          63.8591   83.8932   13.9471 C.2     1  UNL1        0.0534
     25 O          62.9677   83.6865   15.1357 O.co2   1  UNL1       -0.5489
@<TRIPOS>UNITY_ATOM_ATTR
23 1
charge -1
@<TRIPOS>BOND
     1    23    24   ar
     2    24    25   ar
     3    24    20    1
     4    20     1    1
     5     1     2   ar
     6     2     3   ar
     7     3     4   ar
     8     4     8    1
     9     8     9   ar
    10     9    10   ar
    11    10    11   ar
    12    11    14    1
    13    14    15    1
    14    15    16    1
    15    16    17    1
    16    17    18    1
    17    18    19    1
    18    11    12   ar
    19    12    13   ar
    20     4     5   ar
    21     5     6    1
    22     5     7   ar
    23    20    21    1
    24    21    22    1
    25    22    20    1
    26     7     1   ar
    27    13     8   ar
    28    19    14    1
@<TRIPOS>MOLECULE
*****
 25 28 0 0 0
SMALL
GASTEIGER

@<TRIPOS>ATOM
      1 C          62.9742   84.1290   11.9044 C.ar    1  UNL1       -0.0157
      2 C          62.0069   85.1474   12.4308 C.ar    1  UNL1       -0.0038
      3 C          61.3586   86.1214   11.4923 C.ar    1  UNL1        0.0019
      4 C          61.6777   86.0770   10.0272 C.ar    1  UNL1        0.0275
      5 C          62.6450   85.0586    9.5008 C.ar    1  UNL1        0.1398
      6 F          62.9640   85.0143    8.0358 F       1  UNL1       -0.2042
      7 C          63.2932   84.0846   10.4394 C.ar    1  UNL1        0.0257
      8 C          61.0294   87.0511    9.0887 C.ar    1  UNL1        0.0021
      9 C          61.2139   88.5256    9.2929 C.ar    1  UNL1       -0.0003
     10 C          60.5656   89.4998    8.3543 C.ar    1  UNL1       -0.0043
     11 C          59.7328   88.9993    7.2115 C.ar    1  UNL1       -0.0225
     12 C          59.5483   87.5247    7.0073 C.ar    1  UNL1       -0.0043
     13 C          60.1966   86.5507    7.9459 C.ar    1  UNL1       -0.0003
     14 C          59.0845   89.9733    6.2729 C.3     1  UNL1        0.0223
     15 C          59.9297   90.9171    5.4701 C.3     1  UNL1        0.0044
     16 C          59.2814   91.8912    4.5314 C.3     1  UNL1        0.0003
     17 C          57.7879   91.9214    4.3958 C.3     1  UNL1        0.0000
     18 C          56.9426   90.9775    5.1987 C.3     1  UNL1        0.0003
     19 C          57.5909   90.0035    6.1373 C.3     1  UNL1        0.0044
     20 C          63.6225   83.1548   12.8430 C.3     1  UNL1        0.0509
     21 C          64.5575   82.6046   13.8789 C.3     1  UNL1        0.0100
     22 C          64.6732   84.0372   13.4493 C.3     1  UNL1        0.0100
     23 O          63.0818   81.0983   11.3502 O.co2   1  UNL1       -0.5489
     24 C          62.7969   81.9343   12.5626 C.2     1  UNL1        0.0534
     25 O          61.6863   81.5497   13.4947 O.co2   1  UNL1       -0.5489
@<TRIPOS>UNITY_ATOM_ATTR
23 1
charge -1
@<TRIPOS>BOND
     1    23    24   ar
     2    24    25   ar
     3    24    20    1
     4    20     1    1
     5     1     2   ar
     6     2     3   ar
     7     3     4   ar
     8     4     8    1
     9     8     9   ar
    10     9    10   ar
    11    10    11   ar
    12    11    14    1
    13    14    15    1
    14    15    16    1
    15    16    17    1
    16    17    18    1
    17    18    19    1
    18    11    12   ar
    19    12    13   ar
    20     4     5   ar
    21     5     6    1
    22     5     7   ar
    23    20    21    1
    24    21    22    1
    25    22    20    1
    26     7     1   ar
    27    13     8   ar
    28    19    14    1
@<TRIPOS>MOLECULE
*****
 25 28 0 0 0
SMALL
GASTEIGER

@<TRIPOS>ATOM
      1 C          63.0360   84.0166   11.7618 C.ar    1  UNL1       -0.0157
      2 C          63.3307   83.9876   10.2914 C.ar    1  UNL1       -0.0038
      3 C          62.6761   84.9788    9.3756 C.ar    1  UNL1        0.0019
      4 C          61.7266   85.9991    9.9301 C.ar    1  UNL1        0.0275
      5 C          61.4318   86.0281   11.4006 C.ar    1  UNL1        0.1398
      6 F          60.4824   87.0484   11.9551 F       1  UNL1       -0.2042
      7 C          62.0865   85.0369   12.3164 C.ar    1  UNL1        0.0257
      8 C          61.0719   86.9903    9.0142 C.ar    1  UNL1        0.0021
      9 C          61.1928   88.4598    9.2898 C.ar    1  UNL1       -0.0003
     10 C          60.5381   89.4510    8.3738 C.ar    1  UNL1       -0.0043
     11 C          59.7626   88.9727    7.1823 C.ar    1  UNL1       -0.0225
     12 C          59.6417   87.5032    6.9067 C.ar    1  UNL1       -0.0043
     13 C          60.2963   86.5120    7.8227 C.ar    1  UNL1       -0.0003
     14 C          59.1079   89.9639    6.2664 C.3     1  UNL1        0.0223
     15 C          59.9483   90.9124    5.4639 C.3     1  UNL1        0.0044
     16 C          59.2937   91.9036    4.5479 C.3     1  UNL1        0.0003
     17 C          57.7986   91.9463    4.4345 C.3     1  UNL1        0.0000
     18 C          56.9581   90.9977    5.2370 C.3     1  UNL1        0.0003
     19 C          57.6128   90.0066    6.1530 C.3     1  UNL1        0.0044
     20 C          63.6906   83.0254   12.6778 C.3     1  UNL1        0.0509
     21 C          64.3060   81.7459   13.1617 C.3     1  UNL1        0.0100
     22 C          63.8050   81.8509   11.7517 C.3     1  UNL1        0.0100
     23 O          62.8302   83.6588   15.0461 O.co2   1  UNL1       -0.5489
     24 C          63.8037   83.8556   13.9219 C.2     1  UNL1        0.0534
     25 O          64.8902   84.8828   14.0419 O.co2   1  UNL1       -0.5489
@<TRIPOS>UNITY_ATOM_ATTR
23 1
charge -1
@<TRIPOS>BOND
     1    23    24   ar
     2    24    25   ar
     3    24    20    1
     4    20     1    1
     5     1     2   ar
     6     2     3   ar
     7     3     4   ar
     8     4     8    1
     9     8     9   ar
    10     9    10   ar
    11    10    11   ar
    12    11    14    1
    13    14    15    1
    14    15    16    1
    15    16    17    1
    16    17    18    1
    17    18    19    1
    18    11    12   ar
    19    12    13   ar
    20     4     5   ar
    21     5     6    1
    22     5     7   ar
    23    20    21    1
    24    21    22    1
    25    22    20    1
    26     7     1   ar
    27    13     8   ar
    28    19    14    1
@<TRIPOS>MOLECULE
*****
 25 28 0 0 0
SMALL
GASTEIGER

@<TRIPOS>ATOM
      1 C          64.1717   89.5263   14.6963 C.ar    1  UNL1       -0.0157
      2 C          63.7216   89.3124   13.2816 C.ar    1  UNL1       -0.0038
      3 C          63.5267   87.9200   12.7590 C.ar    1  UNL1        0.0019
      4 C          63.7819   86.7415   13.6511 C.ar    1  UNL1        0.0275
      5 C          64.2320   86.9554   15.0659 C.ar    1  UNL1        0.1398
      6 F          64.4872   85.7768   15.9581 F       1  UNL1       -0.2042
      7 C          64.4269   88.3478   15.5885 C.ar    1  UNL1        0.0257
      8 C          63.5870   85.3490   13.1285 C.ar    1  UNL1        0.0021
      9 C          62.6117   85.0945   12.0176 C.ar    1  UNL1       -0.0003
     10 C          62.4167   83.7020   11.4950 C.ar    1  UNL1       -0.0043
     11 C          63.1972   82.5641   12.0832 C.ar    1  UNL1       -0.0225
     12 C          64.1725   82.8186   13.1941 C.ar    1  UNL1       -0.0043
     13 C          64.3674   84.2110   13.7167 C.ar    1  UNL1       -0.0003
     14 C          63.0023   81.1717   11.5606 C.3     1  UNL1        0.0223
     15 C          62.6753   80.0545   12.5066 C.3     1  UNL1        0.0044
     16 C          62.4804   78.6620   11.9840 C.3     1  UNL1        0.0003
     17 C          62.6125   78.3868   10.5154 C.3     1  UNL1        0.0000
     18 C          62.9395   79.5040    9.5694 C.3     1  UNL1        0.0003
     19 C          63.1344   80.8964   10.0920 C.3     1  UNL1        0.0044
     20 C          64.3666   90.9188   15.2190 C.3     1  UNL1        0.0509
     21 C          64.2505   92.1182   16.1122 C.3     1  UNL1        0.0100
     22 C          63.5386   90.8466   16.4677 C.3     1  UNL1        0.0100
     23 O          66.7352   91.1930   14.1871 O.co2   1  UNL1       -0.5489
     24 C          65.2622   91.4744   14.1518 C.2     1  UNL1        0.0534
     25 O          64.6849   92.3116   13.0491 O.co2   1  UNL1       -0.5489
@<TRIPOS>UNITY_ATOM_ATTR
23 1
charge -1
@<TRIPOS>BOND
     1    23    24   ar
     2    24    25   ar
     3    24    20    1
     4    20     1    1
     5     1     2   ar
     6     2     3   ar
     7     3     4   ar
     8     4     8    1
     9     8     9   ar
    10     9    10   ar
    11    10    11   ar
    12    11    14    1
    13    14    15    1
    14    15    16    1
    15    16    17    1
    16    17    18    1
    17    18    19    1
    18    11    12   ar
    19    12    13   ar
    20     4     5   ar
    21     5     6    1
    22     5     7   ar
    23    20    21    1
    24    21    22    1
    25    22    20    1
    26     7     1   ar
    27    13     8   ar
    28    19    14    1
@<TRIPOS>MOLECULE
*****
 25 28 0 0 0
SMALL
GASTEIGER

@<TRIPOS>ATOM
      1 C          64.3132   89.4358   14.4190 C.ar    1  UNL1       -0.0157
      2 C          63.7000   89.1938   13.0717 C.ar    1  UNL1       -0.0038
      3 C          63.4759   87.7908   12.5907 C.ar    1  UNL1        0.0019
      4 C          63.8650   86.6298   13.4571 C.ar    1  UNL1        0.0275
      5 C          64.4782   86.8718   14.8044 C.ar    1  UNL1        0.1398
      6 F          64.8673   85.7108   15.6708 F       1  UNL1       -0.2042
      7 C          64.7023   88.2748   15.2854 C.ar    1  UNL1        0.0257
      8 C          63.6409   85.2267   12.9761 C.ar    1  UNL1        0.0021
      9 C          64.4554   84.1011   13.5411 C.ar    1  UNL1       -0.0003
     10 C          64.2313   82.6980   13.0601 C.ar    1  UNL1       -0.0043
     11 C          63.1926   82.4207   12.0141 C.ar    1  UNL1       -0.0225
     12 C          62.3780   83.5465   11.4490 C.ar    1  UNL1       -0.0043
     13 C          62.6021   84.9495   11.9301 C.ar    1  UNL1       -0.0003
     14 C          62.9684   81.0178   11.5330 C.3     1  UNL1        0.0223
     15 C          63.0590   80.7034   10.0692 C.3     1  UNL1        0.0044
     16 C          62.8349   79.3004    9.5881 C.3     1  UNL1        0.0003
     17 C          62.5202   78.2118   10.5709 C.3     1  UNL1        0.0000
     18 C          62.4296   78.5263   12.0349 C.3     1  UNL1        0.0003
     19 C          62.6537   79.9292   12.5159 C.3     1  UNL1        0.0044
     20 C          64.5373   90.8388   14.9000 C.3     1  UNL1        0.0509
     21 C          65.1468   92.2029   15.0328 C.3     1  UNL1        0.0100
     22 C          65.7251   91.2141   14.0643 C.3     1  UNL1        0.0100
     23 O          63.3152   92.1735   16.7643 O.co2   1  UNL1       -0.5489
     24 C          63.4273   90.9508   15.9027 C.2     1  UNL1        0.0534
     25 O          62.4293   89.8398   16.0438 O.co2   1  UNL1       -0.5489
@<TRIPOS>UNITY_ATOM_ATTR
23 1
charge -1
@<TRIPOS>BOND
     1    23    24   ar
     2    24    25   ar
     3    24    20    1
     4    20     1    1
     5     1     2   ar
     6     2     3   ar
     7     3     4   ar
     8     4     8    1
     9     8     9   ar
    10     9    10   ar
    11    10    11   ar
    12    11    14    1
    13    14    15    1
    14    15    16    1
    15    16    17    1
    16    17    18    1
    17    18    19    1
    18    11    12   ar
    19    12    13   ar
    20     4     5   ar
    21     5     6    1
    22     5     7   ar
    23    20    21    1
    24    21    22    1
    25    22    20    1
    26     7     1   ar
    27    13     8   ar
    28    19    14    1
@<TRIPOS>MOLECULE
*****
 25 28 0 0 0
SMALL
GASTEIGER

@<TRIPOS>ATOM
      1 C          62.0530   82.2679   13.7517 C.ar    1  UNL1       -0.0157
      2 C          62.5375   82.8878   12.4747 C.ar    1  UNL1       -0.0038
      3 C          63.0386   84.3016   12.4702 C.ar    1  UNL1        0.0019
      4 C          63.0551   85.0955   13.7428 C.ar    1  UNL1        0.0275
      5 C          62.5706   84.4755   15.0199 C.ar    1  UNL1        0.1398
      6 F          62.5872   85.2694   16.2925 F       1  UNL1       -0.2042
      7 C          62.0696   83.0617   15.0243 C.ar    1  UNL1        0.0257
      8 C          63.5562   86.5094   13.7383 C.ar    1  UNL1        0.0021
      9 C          63.1548   87.4438   12.6357 C.ar    1  UNL1       -0.0003
     10 C          63.6559   88.8577   12.6312 C.ar    1  UNL1       -0.0043
     11 C          64.5583   89.3370   13.7293 C.ar    1  UNL1       -0.0225
     12 C          64.9597   88.4025   14.8319 C.ar    1  UNL1       -0.0043
     13 C          64.4586   86.9887   14.8364 C.ar    1  UNL1       -0.0003
     14 C          65.0594   90.7508   13.7248 C.3     1  UNL1        0.0223
     15 C          65.6205   91.3516   14.9795 C.3     1  UNL1        0.0044
     16 C          66.1216   92.7655   14.9750 C.3     1  UNL1        0.0003
     17 C          66.0616   93.5785   13.7159 C.3     1  UNL1        0.0000
     18 C          65.5004   92.9776   12.4612 C.3     1  UNL1        0.0003
     19 C          64.9994   91.5638   12.4657 C.3     1  UNL1        0.0044
     20 C          61.5520   80.8540   13.7563 C.3     1  UNL1        0.0509
     21 C          60.6229   79.6883   13.9237 C.3     1  UNL1        0.0100
     22 C          60.1453   81.0776   14.2269 C.3     1  UNL1        0.0100
     23 O          62.7894   79.4463   11.9569 O.co2   1  UNL1       -0.5489
     24 C          62.7846   80.1394   13.2872 C.2     1  UNL1        0.0534
     25 O          64.0125   80.1179   14.1485 O.co2   1  UNL1       -0.5489
@<TRIPOS>UNITY_ATOM_ATTR
23 1
charge -1
@<TRIPOS>BOND
     1    23    24   ar
     2    24    25   ar
     3    24    20    1
     4    20     1    1
     5     1     2   ar
     6     2     3   ar
     7     3     4   ar
     8     4     8    1
     9     8     9   ar
    10     9    10   ar
    11    10    11   ar
    12    11    14    1
    13    14    15    1
    14    15    16    1
    15    16    17    1
    16    17    18    1
    17    18    19    1
    18    11    12   ar
    19    12    13   ar
    20     4     5   ar
    21     5     6    1
    22     5     7   ar
    23    20    21    1
    24    21    22    1
    25    22    20    1
    26     7     1   ar
    27    13     8   ar
    28    19    14    1
@<TRIPOS>MOLECULE
*****
 25 28 0 0 0
SMALL
GASTEIGER

@<TRIPOS>ATOM
      1 C          60.8481   87.8180    9.3429 C.ar    1  UNL1       -0.0157
      2 C          61.0744   89.2839    9.1197 C.ar    1  UNL1       -0.0038
      3 C          62.0463   90.0326    9.9827 C.ar    1  UNL1        0.0019
      4 C          62.7919   89.3155   11.0688 C.ar    1  UNL1        0.0275
      5 C          62.5655   87.8496   11.2921 C.ar    1  UNL1        0.1398
      6 F          63.3111   87.1324   12.3782 F       1  UNL1       -0.2042
      7 C          61.5936   87.1008   10.4291 C.ar    1  UNL1        0.0257
      8 C          63.7638   90.0643   11.9318 C.ar    1  UNL1        0.0021
      9 C          64.0718   89.5728   13.3151 C.ar    1  UNL1       -0.0003
     10 C          65.0437   90.3216   14.1781 C.ar    1  UNL1       -0.0043
     11 C          65.7077   91.5619   13.6577 C.ar    1  UNL1       -0.0225
     12 C          65.3997   92.0534   12.2743 C.ar    1  UNL1       -0.0043
     13 C          64.4278   91.3046   11.4114 C.ar    1  UNL1       -0.0003
     14 C          66.6796   92.3107   14.5206 C.3     1  UNL1        0.0223
     15 C          66.8388   93.7934   14.3583 C.3     1  UNL1        0.0044
     16 C          67.8107   94.5423   15.2212 C.3     1  UNL1        0.0003
     17 C          68.6234   93.8084   16.2464 C.3     1  UNL1        0.0000
     18 C          68.4642   92.3257   16.4087 C.3     1  UNL1        0.0003
     19 C          67.4923   91.5769   15.5458 C.3     1  UNL1        0.0044
     20 C          59.8761   87.0692    8.4799 C.3     1  UNL1        0.0509
     21 C          58.5872   86.6819    7.8175 C.3     1  UNL1        0.0100
     22 C          58.6258   87.8501    8.7576 C.3     1  UNL1        0.0100
     23 O          62.2388   86.0061    8.2861 O.co2   1  UNL1       -0.5489
     24 C          60.7888   86.0282    7.9026 C.2     1  UNL1        0.0534
     25 O          60.2515   85.0093    6.9417 O.co2   1  UNL1       -0.5489
@<TRIPOS>UNITY_ATOM_ATTR
23 1
charge -1
@<TRIPOS>BOND
     1    23    24   ar
     2    24    25   ar
     3    24    20    1
     4    20     1    1
     5     1     2   ar
     6     2     3   ar
     7     3     4   ar
     8     4     8    1
     9     8     9   ar
    10     9    10   ar
    11    10    11   ar
    12    11    14    1
    13    14    15    1
    14    15    16    1
    15    16    17    1
    16    17    18    1
    17    18    19    1
    18    11    12   ar
    19    12    13   ar
    20     4     5   ar
    21     5     6    1
    22     5     7   ar
    23    20    21    1
    24    21    22    1
    25    22    20    1
    26     7     1   ar
    27    13     8   ar
    28    19    14    1
@<TRIPOS>MOLECULE
*****
 25 28 0 0 0
SMALL
GASTEIGER

@<TRIPOS>ATOM
      1 C          60.9300   87.8164    9.3992 C.ar    1  UNL1       -0.0157
      2 C          61.5623   87.1409   10.5798 C.ar    1  UNL1       -0.0038
      3 C          62.5356   87.8906   11.4403 C.ar    1  UNL1        0.0019
      4 C          62.8766   89.3158   11.1203 C.ar    1  UNL1        0.0275
      5 C          62.2443   89.9914    9.9397 C.ar    1  UNL1        0.1398
      6 F          62.5852   91.4166    9.6197 F       1  UNL1       -0.2042
      7 C          61.2709   89.2417    9.0792 C.ar    1  UNL1        0.0257
      8 C          63.8500   90.0655   11.9809 C.ar    1  UNL1        0.0021
      9 C          64.5399   91.2851   11.4455 C.ar    1  UNL1       -0.0003
     10 C          65.5132   92.0348   12.3061 C.ar    1  UNL1       -0.0043
     11 C          65.7967   91.5648   13.7021 C.ar    1  UNL1       -0.0225
     12 C          65.1067   90.3452   14.2375 C.ar    1  UNL1       -0.0043
     13 C          64.1334   89.5956   13.3769 C.ar    1  UNL1       -0.0003
     14 C          66.7700   92.3145   14.5627 C.3     1  UNL1        0.0223
     15 C          67.6186   91.5750   15.5541 C.3     1  UNL1        0.0044
     16 C          68.5920   92.3246   16.4147 C.3     1  UNL1        0.0003
     17 C          68.7167   93.8137   16.2839 C.3     1  UNL1        0.0000
     18 C          67.8680   94.5532   15.2924 C.3     1  UNL1        0.0003
     19 C          66.8947   93.8035   14.4318 C.3     1  UNL1        0.0044
     20 C          59.9566   87.0668    8.5386 C.3     1  UNL1        0.0509
     21 C          58.6659   86.6766    7.8814 C.3     1  UNL1        0.0100
     22 C          58.7047   87.8418    8.8253 C.3     1  UNL1        0.0100
     23 O          60.3479   85.0564    6.9400 O.co2   1  UNL1       -0.5489
     24 C          60.8704   86.0314    7.9531 C.2     1  UNL1        0.0534
     25 O          62.3070   85.9710    8.3807 O.co2   1  UNL1       -0.5489
@<TRIPOS>UNITY_ATOM_ATTR
23 1
charge -1
@<TRIPOS>BOND
     1    23    24   ar
     2    24    25   ar
     3    24    20    1
     4    20     1    1
     5     1     2   ar
     6     2     3   ar
     7     3     4   ar
     8     4     8    1
     9     8     9   ar
    10     9    10   ar
    11    10    11   ar
    12    11    14    1
    13    14    15    1
    14    15    16    1
    15    16    17    1
    16    17    18    1
    17    18    19    1
    18    11    12   ar
    19    12    13   ar
    20     4     5   ar
    21     5     6    1
    22     5     7   ar
    23    20    21    1
    24    21    22    1
    25    22    20    1
    26     7     1   ar
    27    13     8   ar
    28    19    14    1
@<TRIPOS>MOLECULE
*****
 25 28 0 0 0
SMALL
GASTEIGER

@<TRIPOS>ATOM
      1 C          60.4789   88.3734    8.9247 C.ar    1  UNL1       -0.0157
      2 C          61.8170   87.7299    9.1378 C.ar    1  UNL1       -0.0038
      3 C          62.8243   88.3759   10.0423 C.ar    1  UNL1        0.0019
      4 C          62.4935   89.6653   10.7335 C.ar    1  UNL1        0.0275
      5 C          61.1554   90.3088   10.5204 C.ar    1  UNL1        0.1398
      6 F          60.8247   91.5983   11.2117 F       1  UNL1       -0.2042
      7 C          60.1482   89.6628    9.6160 C.ar    1  UNL1        0.0257
      8 C          63.5009   90.3113   11.6380 C.ar    1  UNL1        0.0021
      9 C          63.7704   89.7323   12.9952 C.ar    1  UNL1       -0.0003
     10 C          64.7778   90.3783   13.8997 C.ar    1  UNL1       -0.0043
     11 C          65.5156   91.6033   13.4468 C.ar    1  UNL1       -0.0225
     12 C          65.2460   92.1823   12.0896 C.ar    1  UNL1       -0.0043
     13 C          64.2387   91.5363   11.1852 C.ar    1  UNL1       -0.0003
     14 C          66.5229   92.2492   14.3512 C.3     1  UNL1        0.0223
     15 C          67.3268   91.4097   15.2993 C.3     1  UNL1        0.0044
     16 C          68.3342   92.0557   16.2037 C.3     1  UNL1        0.0003
     17 C          68.5377   93.5412   16.1600 C.3     1  UNL1        0.0000
     18 C          67.7337   94.3807   15.2119 C.3     1  UNL1        0.0003
     19 C          66.7263   93.7347   14.3075 C.3     1  UNL1        0.0044
     20 C          59.4715   87.7274    8.0202 C.3     1  UNL1        0.0509
     21 C          58.5802   86.6783    7.4246 C.3     1  UNL1        0.0100
     22 C          59.4557   86.3420    8.5953 C.3     1  UNL1        0.0100
     23 O          57.7051   89.2672    6.8983 O.co2   1  UNL1       -0.5489
     24 C          59.1376   88.8884    7.1311 C.2     1  UNL1        0.0534
     25 O          60.2364   89.6707    6.4748 O.co2   1  UNL1       -0.5489
@<TRIPOS>UNITY_ATOM_ATTR
23 1
charge -1
@<TRIPOS>BOND
     1    23    24   ar
     2    24    25   ar
     3    24    20    1
     4    20     1    1
     5     1     2   ar
     6     2     3   ar
     7     3     4   ar
     8     4     8    1
     9     8     9   ar
    10     9    10   ar
    11    10    11   ar
    12    11    14    1
    13    14    15    1
    14    15    16    1
    15    16    17    1
    16    17    18    1
    17    18    19    1
    18    11    12   ar
    19    12    13   ar
    20     4     5   ar
    21     5     6    1
    22     5     7   ar
    23    20    21    1
    24    21    22    1
    25    22    20    1
    26     7     1   ar
    27    13     8   ar
    28    19    14    1
