@<TRIPOS>MOLECULE
*****
 35 38 0 0 0
SMALL
GASTEIGER

@<TRIPOS>ATOM
      1 C          63.6882   87.1391   14.1587 C.ar    1  UNL1        0.1665
      2 N          63.4377   86.5730   15.5250 N.ar    1  UNL1       -0.1866
      3 C          62.9954   85.1478   15.6767 C.ar    1  UNL1        0.2814
      4 O          62.7448   84.5816   17.0430 O.2     1  UNL1       -0.2651
      5 C          62.8036   84.2886   14.4621 C.ar    1  UNL1        0.0699
      6 C          62.3613   82.8633   14.6139 C.ar    1  UNL1        0.0096
      7 C          62.1696   82.0042   13.3994 C.ar    1  UNL1        0.0777
      8 C          62.4201   82.5703   12.0331 C.ar    1  UNL1        0.0797
      9 C          62.8624   83.9956   11.8813 C.ar    1  UNL1        0.2960
     10 C          63.0542   84.8547   13.0959 C.ar    1  UNL1        0.1059
     11 S          63.4965   86.2799   12.9441 S.2     1  UNL1       -0.0466
     12 N          65.0152   91.4149   13.7034 N.3     1  UNL1       -0.2698
     13 C          65.6101   90.5554   14.7793 C.3     1  UNL1        0.0939
     14 C          65.1678   89.1302   14.9310 C.3     1  UNL1        0.1100
     15 N          64.1305   88.5644   14.0069 N.pl3   1  UNL1       -0.2852
     16 C          63.5356   89.4238   12.9311 C.3     1  UNL1        0.1100
     17 C          63.9779   90.8491   12.7793 C.3     1  UNL1        0.0939
     18 C          65.4575   92.8401   13.5516 C.3     1  UNL1        0.0722
     19 N          67.6731   94.7520    8.3138 N.2     1  UNL1       -0.0918
     20 C          67.1192   94.2740    9.6232 C.2     1  UNL1        0.0748
     21 C          66.6171   95.2646   10.6315 C.3     1  UNL1        0.0447
     22 C          66.0632   94.7866   11.9410 C.3     1  UNL1        0.0074
     23 C          66.0114   93.3181   12.2422 C.3     1  UNL1        0.0167
     24 C          66.5135   92.3275   11.2338 C.3     1  UNL1        0.0074
     25 C          67.0674   92.8055    9.9244 C.3     1  UNL1        0.0447
     26 O          67.7249   96.2205    8.0126 O.2     1  UNL1       -0.3779
     27 C          65.2144   96.7704    7.6314 C.3     1  UNL1        0.0543
     28 C          66.6448   96.8555    7.1878 C.3     1  UNL1        0.2386
     29 C          61.7273   80.5790   13.5511 C.3     1  UNL1        0.4188
     30 F          61.2850   79.1536   13.7028 F       1  UNL1       -0.1659
     31 F          62.9224   80.1246   12.7668 F       1  UNL1       -0.1659
     32 F          60.5322   81.0333   14.3354 F       1  UNL1       -0.1659
     33 N          63.1129   84.5616   10.5151 N.pl3   1  UNL1        0.0814
     34 O          62.3402   85.7587   10.0459 O.2     1  UNL1        0.0415
     35 O          64.1362   83.9308    9.6179 O.co2   1  UNL1       -0.5760
@<TRIPOS>UNITY_ATOM_ATTR
33 1
charge 1
35 1
charge -1
@<TRIPOS>BOND
     1    27    28    1
     2    28    26    1
     3    26    19    1
     4    19    20    2
     5    20    21    1
     6    21    22    1
     7    22    23    1
     8    23    18    1
     9    18    12    1
    10    12    13    1
    11    13    14    1
    12    14    15    1
    13    15     1    1
    14     1     2   ar
    15     2     3   ar
    16     3     4    2
    17     3     5   ar
    18     5     6   ar
    19     6     7   ar
    20     7    29    1
    21    29    30    1
    22    29    31    1
    23    29    32    1
    24     7     8   ar
    25     8     9   ar
    26     9    33    1
    27    33    34    2
    28    33    35    1
    29     9    10   ar
    30    10    11   ar
    31    15    16    1
    32    16    17    1
    33    23    24    1
    34    24    25    1
    35    25    20    1
    36    17    12    1
    37    11     1   ar
    38    10     5   ar
@<TRIPOS>MOLECULE
*****
 35 38 0 0 0
SMALL
GASTEIGER

@<TRIPOS>ATOM
      1 C          63.1166   90.1423   11.9588 C.ar    1  UNL1        0.1665
      2 N          63.0291   89.4263   13.2739 N.ar    1  UNL1       -0.1866
      3 C          64.0290   89.7162   14.3537 C.ar    1  UNL1        0.2814
      4 O          63.9415   89.0002   15.6689 O.2     1  UNL1       -0.2651
      5 C          65.1165   90.7222   14.1184 C.ar    1  UNL1        0.0699
      6 C          66.1165   91.0121   15.1982 C.ar    1  UNL1        0.0096
      7 C          67.2040   92.0181   14.9629 C.ar    1  UNL1        0.0777
      8 C          67.2915   92.7341   13.6477 C.ar    1  UNL1        0.0797
      9 C          66.2915   92.4442   12.5679 C.ar    1  UNL1        0.2960
     10 C          65.2040   91.4382   12.8032 C.ar    1  UNL1        0.1059
     11 S          64.2041   91.1482   11.7235 S.2     1  UNL1       -0.0466
     12 N          60.1167   89.2725    8.7193 N.3     1  UNL1       -0.2698
     13 C          61.3496   88.4274    8.8464 C.3     1  UNL1        0.0939
     14 C          62.3495   88.7174    9.9262 C.3     1  UNL1        0.1100
     15 N          62.1166   89.8523   10.8789 N.pl3   1  UNL1       -0.2852
     16 C          60.8838   90.6973   10.7518 C.3     1  UNL1        0.1100
     17 C          59.8838   90.4074    9.6720 C.3     1  UNL1        0.0939
     18 C          59.1168   88.9825    7.6394 C.3     1  UNL1        0.0722
     19 N          58.6368   92.6661    2.9277 N.2     1  UNL1       -0.0918
     20 C          58.7568   91.7452    4.1056 C.2     1  UNL1        0.0748
     21 C          60.1089   91.2823    4.5610 C.3     1  UNL1        0.0447
     22 C          60.2290   90.3614    5.7390 C.3     1  UNL1        0.0074
     23 C          58.9968   89.9034    6.4615 C.3     1  UNL1        0.0167
     24 C          57.6446   90.3663    6.0060 C.3     1  UNL1        0.0074
     25 C          57.5246   91.2872    4.8281 C.3     1  UNL1        0.0447
     26 O          59.8689   93.1241    2.2052 O.2     1  UNL1       -0.3779
     27 C          60.5325   91.9835   -0.0328 C.3     1  UNL1        0.0543
     28 C          59.9016   93.1267    0.7055 C.3     1  UNL1        0.2386
     29 C          68.2040   92.3080   16.0427 C.3     1  UNL1        0.4188
     30 F          69.2040   92.5980   17.1225 F       1  UNL1       -0.1659
     31 F          69.3019   92.3264   15.0209 F       1  UNL1       -0.1659
     32 F          67.1060   92.2896   17.0644 F       1  UNL1       -0.1659
     33 N          66.3791   93.1602   11.2528 N.pl3   1  UNL1        0.0814
     34 O          65.7322   94.5032   11.0855 O.2     1  UNL1        0.0415
     35 O          67.1134   92.5332   10.1049 O.co2   1  UNL1       -0.5760
@<TRIPOS>UNITY_ATOM_ATTR
33 1
charge 1
35 1
charge -1
@<TRIPOS>BOND
     1    27    28    1
     2    28    26    1
     3    26    19    1
     4    19    20    2
     5    20    21    1
     6    21    22    1
     7    22    23    1
     8    23    18    1
     9    18    12    1
    10    12    13    1
    11    13    14    1
    12    14    15    1
    13    15     1    1
    14     1     2   ar
    15     2     3   ar
    16     3     4    2
    17     3     5   ar
    18     5     6   ar
    19     6     7   ar
    20     7    29    1
    21    29    30    1
    22    29    31    1
    23    29    32    1
    24     7     8   ar
    25     8     9   ar
    26     9    33    1
    27    33    34    2
    28    33    35    1
    29     9    10   ar
    30    10    11   ar
    31    15    16    1
    32    16    17    1
    33    23    24    1
    34    24    25    1
    35    25    20    1
    36    17    12    1
    37    11     1   ar
    38    10     5   ar
@<TRIPOS>MOLECULE
*****
 35 38 0 0 0
SMALL
GASTEIGER

@<TRIPOS>ATOM
      1 C          64.1195   89.3370   13.0832 C.ar    1  UNL1        0.1665
      2 N          63.4532   89.6559   11.7777 N.ar    1  UNL1       -0.1866
      3 C          63.7304   90.9617   11.0936 C.ar    1  UNL1        0.2814
      4 O          63.0640   91.2807    9.7881 O.2     1  UNL1       -0.2651
      5 C          64.6738   91.9485   11.7149 C.ar    1  UNL1        0.0699
      6 C          64.9509   93.2544   11.0308 C.ar    1  UNL1        0.0096
      7 C          65.8944   94.2412   11.6521 C.ar    1  UNL1        0.0777
      8 C          66.5607   93.9222   12.9576 C.ar    1  UNL1        0.0797
      9 C          66.2836   92.6164   13.6417 C.ar    1  UNL1        0.2960
     10 C          65.3401   91.6296   13.0204 C.ar    1  UNL1        0.1059
     11 S          65.0630   90.3238   13.7045 S.2     1  UNL1       -0.0466
     12 N          63.2882   85.4195   15.1357 N.3     1  UNL1       -0.2698
     13 C          63.6720   86.6233   15.9443 C.3     1  UNL1        0.0939
     14 C          63.9491   87.9291   15.2601 C.3     1  UNL1        0.1100
     15 N          63.8424   88.0311   13.7674 N.pl3   1  UNL1       -0.2852
     16 C          63.4587   86.8274   12.9588 C.3     1  UNL1        0.1100
     17 C          63.1816   85.5215   13.6430 C.3     1  UNL1        0.0939
     18 C          63.0111   84.1137   15.8199 C.3     1  UNL1        0.0722
     19 N          61.8817   79.2017   12.5648 N.2     1  UNL1       -0.0918
     20 C          62.1640   80.4297   13.3786 C.2     1  UNL1        0.0748
     21 C          63.5427   81.0204   13.3912 C.3     1  UNL1        0.0447
     22 C          63.8251   82.2485   14.2050 C.3     1  UNL1        0.0074
     23 C          62.7288   82.8857   15.0062 C.3     1  UNL1        0.0167
     24 C          61.3500   82.2950   14.9935 C.3     1  UNL1        0.0074
     25 C          61.0677   81.0670   14.1797 C.3     1  UNL1        0.0447
     26 O          62.9780   78.5644   11.7636 O.2     1  UNL1       -0.3779
     27 C          62.7678   79.4476    9.3293 C.3     1  UNL1        0.0543
     28 C          62.7826   78.3036   10.2994 C.3     1  UNL1        0.2386
     29 C          66.1715   95.5470   10.9680 C.3     1  UNL1        0.4188
     30 F          66.4487   96.8529   10.2838 F       1  UNL1       -0.1659
     31 F          66.4127   94.8201    9.6783 F       1  UNL1       -0.1659
     32 F          65.9303   96.2739   12.2577 F       1  UNL1       -0.1659
     33 N          66.9499   92.2975   14.9472 N.pl3   1  UNL1        0.0814
     34 O          66.2803   92.6606   16.2394 O.2     1  UNL1        0.0415
     35 O          68.2858   91.6154   14.9604 O.co2   1  UNL1       -0.5760
@<TRIPOS>UNITY_ATOM_ATTR
33 1
charge 1
35 1
charge -1
@<TRIPOS>BOND
     1    27    28    1
     2    28    26    1
     3    26    19    1
     4    19    20    2
     5    20    21    1
     6    21    22    1
     7    22    23    1
     8    23    18    1
     9    18    12    1
    10    12    13    1
    11    13    14    1
    12    14    15    1
    13    15     1    1
    14     1     2   ar
    15     2     3   ar
    16     3     4    2
    17     3     5   ar
    18     5     6   ar
    19     6     7   ar
    20     7    29    1
    21    29    30    1
    22    29    31    1
    23    29    32    1
    24     7     8   ar
    25     8     9   ar
    26     9    33    1
    27    33    34    2
    28    33    35    1
    29     9    10   ar
    30    10    11   ar
    31    15    16    1
    32    16    17    1
    33    23    24    1
    34    24    25    1
    35    25    20    1
    36    17    12    1
    37    11     1   ar
    38    10     5   ar
@<TRIPOS>MOLECULE
*****
 35 38 0 0 0
SMALL
GASTEIGER

@<TRIPOS>ATOM
      1 C          63.6995   85.5382   13.4469 C.ar    1  UNL1        0.1665
      2 N          63.8778   84.5181   14.5320 N.ar    1  UNL1       -0.1866
      3 C          63.7252   83.0586   14.2216 C.ar    1  UNL1        0.2814
      4 O          63.9036   82.0383   15.3067 O.2     1  UNL1       -0.2651
      5 C          63.3943   82.6192   12.8261 C.ar    1  UNL1        0.0699
      6 C          63.2418   81.1595   12.5157 C.ar    1  UNL1        0.0096
      7 C          62.9109   80.7201   11.1202 C.ar    1  UNL1        0.0777
      8 C          62.7325   81.7403   10.0351 C.ar    1  UNL1        0.0797
      9 C          62.8851   83.1999   10.3455 C.ar    1  UNL1        0.2960
     10 C          63.2160   83.6393   11.7410 C.ar    1  UNL1        0.1059
     11 S          63.3686   85.0988   12.0514 S.2     1  UNL1       -0.0466
     12 N          64.1572   89.9171   14.3781 N.3     1  UNL1       -0.2698
     13 C          64.5628   88.8883   15.3916 C.3     1  UNL1        0.0939
     14 C          64.4102   87.4288   15.0812 C.3     1  UNL1        0.1100
     15 N          63.8520   86.9979   13.7573 N.pl3   1  UNL1       -0.2852
     16 C          63.4464   88.0266   12.7438 C.3     1  UNL1        0.1100
     17 C          63.5990   89.4862   13.0541 C.3     1  UNL1        0.0939
     18 C          64.3098   91.3766   14.6885 C.3     1  UNL1        0.0722
     19 N          67.1426   94.9857   10.8221 N.2     1  UNL1       -0.0918
     20 C          66.4344   94.0834   11.7887 C.2     1  UNL1        0.0748
     21 C          65.4938   93.0311   11.2810 C.3     1  UNL1        0.0447
     22 C          64.7855   92.1288   12.2476 C.3     1  UNL1        0.0074
     23 C          65.0180   92.2789   13.7219 C.3     1  UNL1        0.0167
     24 C          65.9587   93.3312   14.2295 C.3     1  UNL1        0.0074
     25 C          66.6669   94.2335   13.2630 C.3     1  UNL1        0.0447
     26 O          66.9102   94.8356    9.3478 O.2     1  UNL1       -0.3779
     27 C          68.4074   92.7500    8.9493 C.3     1  UNL1        0.0543
     28 C          67.9017   94.0903    8.5043 C.3     1  UNL1        0.2386
     29 C          62.7583   79.2606   10.8098 C.3     1  UNL1        0.4188
     30 F          62.6057   77.8009   10.4994 F       1  UNL1       -0.1659
     31 F          63.0652   79.5352    9.3675 F       1  UNL1       -0.1659
     32 F          62.4514   78.9859   12.2521 F       1  UNL1       -0.1659
     33 N          62.7068   84.2200    9.2604 N.pl3   1  UNL1        0.0814
     34 O          61.7403   85.3520    9.4466 O.2     1  UNL1        0.0415
     35 O          63.4949   84.1082    7.9891 O.co2   1  UNL1       -0.5760
@<TRIPOS>UNITY_ATOM_ATTR
33 1
charge 1
35 1
charge -1
@<TRIPOS>BOND
     1    27    28    1
     2    28    26    1
     3    26    19    1
     4    19    20    2
     5    20    21    1
     6    21    22    1
     7    22    23    1
     8    23    18    1
     9    18    12    1
    10    12    13    1
    11    13    14    1
    12    14    15    1
    13    15     1    1
    14     1     2   ar
    15     2     3   ar
    16     3     4    2
    17     3     5   ar
    18     5     6   ar
    19     6     7   ar
    20     7    29    1
    21    29    30    1
    22    29    31    1
    23    29    32    1
    24     7     8   ar
    25     8     9   ar
    26     9    33    1
    27    33    34    2
    28    33    35    1
    29     9    10   ar
    30    10    11   ar
    31    15    16    1
    32    16    17    1
    33    23    24    1
    34    24    25    1
    35    25    20    1
    36    17    12    1
    37    11     1   ar
    38    10     5   ar
