@<TRIPOS>MOLECULE
*****
 24 26 0 0 0
SMALL
GASTEIGER

@<TRIPOS>ATOM
      1 C          64.1205   83.5148   12.9630 C.3     1  UNL1        0.0935
      2 C          63.4124   84.2571   11.8686 C.ar    1  UNL1        0.0001
      3 C          62.4266   85.3350   12.2096 C.ar    1  UNL1       -0.0017
      4 C          61.7186   86.0773   11.1152 C.ar    1  UNL1        0.0112
      5 C          61.9964   85.7417    9.6798 C.ar    1  UNL1        0.0585
      6 CL         61.2883   86.4841    8.5855 Cl      1  UNL1       -0.0822
      7 C          62.9822   84.6638    9.3388 C.ar    1  UNL1        0.0225
      8 C          63.6903   83.9215   10.4333 C.ar    1  UNL1        0.0554
      9 CL         64.6761   82.8436   10.0923 Cl      1  UNL1       -0.0825
     10 S          64.8477   84.2722   14.0342 S.3     1  UNL1       -0.1298
     11 C          64.1324   84.6636   15.2932 C.3     1  UNL1        0.0841
     12 CL         63.2630   90.4610   16.5713 Cl      1  UNL1       -0.0822
     13 C          63.4804   89.0117   16.2518 C.ar    1  UNL1        0.0577
     14 C          62.9721   87.9534   17.1855 C.ar    1  UNL1        0.0111
     15 C          63.1895   86.5041   16.8659 C.ar    1  UNL1       -0.0025
     16 C          63.9150   86.1129   15.6128 C.ar    1  UNL1       -0.0113
     17 C          64.4233   87.1712   14.6791 C.ar    1  UNL1       -0.0025
     18 C          64.2059   88.6205   14.9986 C.ar    1  UNL1        0.0111
     19 C          64.1013   82.0151   12.9862 C.3     1  UNL1        0.1228
     20 N          62.8458   81.2868   13.3646 N.ar    1  UNL1       -0.3066
     21 C          61.6805   81.8670   14.1098 C.ar    1  UNL1        0.0981
     22 C          60.6496   80.7893   14.2700 C.ar    1  UNL1        0.1193
     23 N          61.1778   79.5429   13.6239 N.ar    1  UNL1       -0.2223
     24 C          62.5351   79.8504   13.0643 C.ar    1  UNL1        0.1786
@<TRIPOS>BOND
     1    12    13    1
     2    13    14   ar
     3    14    15   ar
     4    15    16   ar
     5    16    11    1
     6    11    10    1
     7    10     1    1
     8     1    19    1
     9    19    20    1
    10    20    21   ar
    11    21    22   ar
    12    22    23   ar
    13    23    24   ar
    14     1     2    1
    15     2     3   ar
    16     3     4   ar
    17     4     5   ar
    18     5     6    1
    19     5     7   ar
    20     7     8   ar
    21     8     9    1
    22    16    17   ar
    23    17    18   ar
    24    18    13   ar
    25    24    20   ar
    26     8     2   ar
@<TRIPOS>MOLECULE
*****
 24 26 0 0 0
SMALL
GASTEIGER

@<TRIPOS>ATOM
      1 C          61.9495   86.9931   10.4423 C.3     1  UNL1        0.0935
      2 C          61.8569   86.2554    9.1395 C.ar    1  UNL1        0.0001
      3 C          63.0441   85.5007    8.6189 C.ar    1  UNL1       -0.0017
      4 C          62.9515   84.7630    7.3162 C.ar    1  UNL1        0.0112
      5 C          61.6717   84.7801    6.5339 C.ar    1  UNL1        0.0585
      6 CL         61.5792   84.0424    5.2311 Cl      1  UNL1       -0.0822
      7 C          60.4845   85.5348    7.0544 C.ar    1  UNL1        0.0225
      8 C          60.5772   86.2725    8.3573 C.ar    1  UNL1        0.0554
      9 CL         59.3900   87.0272    8.8778 Cl      1  UNL1       -0.0825
     10 S          62.3253   88.4452   10.4569 S.3     1  UNL1       -0.1298
     11 C          62.0433   89.2807   11.6703 C.3     1  UNL1        0.0841
     12 CL         66.5672   91.8386   14.6689 Cl      1  UNL1       -0.0822
     13 C          65.4362   91.1991   13.9192 C.ar    1  UNL1        0.0577
     14 C          64.9142   91.8340   12.6645 C.ar    1  UNL1        0.0111
     15 C          63.7832   91.1946   11.9149 C.ar    1  UNL1       -0.0025
     16 C          63.1743   89.9202   12.4200 C.ar    1  UNL1       -0.0113
     17 C          63.6963   89.2853   13.6746 C.ar    1  UNL1       -0.0025
     18 C          64.8273   89.9248   14.4243 C.ar    1  UNL1        0.0111
     19 C          61.6664   86.2787   11.7305 C.3     1  UNL1        0.1228
     20 N          62.6416   85.2682   12.2577 N.ar    1  UNL1       -0.3066
     21 C          62.7900   83.8538   11.7810 C.ar    1  UNL1        0.0981
     22 C          63.8797   83.2061   12.5829 C.ar    1  UNL1        0.1193
     23 N          64.4049   84.2204   13.5553 N.ar    1  UNL1       -0.2223
     24 C          63.6397   85.4948   13.3543 C.ar    1  UNL1        0.1786
@<TRIPOS>BOND
     1    12    13    1
     2    13    14   ar
     3    14    15   ar
     4    15    16   ar
     5    16    11    1
     6    11    10    1
     7    10     1    1
     8     1    19    1
     9    19    20    1
    10    20    21   ar
    11    21    22   ar
    12    22    23   ar
    13    23    24   ar
    14     1     2    1
    15     2     3   ar
    16     3     4   ar
    17     4     5   ar
    18     5     6    1
    19     5     7   ar
    20     7     8   ar
    21     8     9    1
    22    16    17   ar
    23    17    18   ar
    24    18    13   ar
    25    24    20   ar
    26     8     2   ar
@<TRIPOS>MOLECULE
*****
 24 26 0 0 0
SMALL
GASTEIGER

@<TRIPOS>ATOM
      1 C          63.4879   85.1929   13.1863 C.3     1  UNL1        0.0935
      2 C          63.1356   83.7352   13.2199 C.ar    1  UNL1        0.0001
      3 C          62.2509   83.2023   14.3077 C.ar    1  UNL1       -0.0017
      4 C          61.8986   81.7446   14.3412 C.ar    1  UNL1        0.0112
      5 C          62.4309   80.8199   13.2869 C.ar    1  UNL1        0.0585
      6 CL         62.0786   79.3622   13.3205 Cl      1  UNL1       -0.0822
      7 C          63.3156   81.3528   12.1991 C.ar    1  UNL1        0.0225
      8 C          63.6679   82.8105   12.1656 C.ar    1  UNL1        0.0554
      9 CL         64.5526   83.3435   11.0778 Cl      1  UNL1       -0.0825
     10 S          62.9211   86.0770   12.1153 S.3     1  UNL1       -0.1298
     11 C          61.6314   85.7090   11.4436 C.3     1  UNL1        0.0841
     12 CL         59.4127   89.1957    7.0938 Cl      1  UNL1       -0.0822
     13 C          59.9674   88.3240    8.1813 C.ar    1  UNL1        0.0577
     14 C          60.2490   86.8757    7.9112 C.ar    1  UNL1        0.0111
     15 C          60.8037   86.0040    8.9986 C.ar    1  UNL1       -0.0025
     16 C          61.0767   86.5806   10.3562 C.ar    1  UNL1       -0.0113
     17 C          60.7951   88.0290   10.6262 C.ar    1  UNL1       -0.0025
     18 C          60.2404   88.9006    9.5388 C.ar    1  UNL1        0.0111
     19 C          64.4069   85.7664   14.2238 C.3     1  UNL1        0.1228
     20 N          63.8426   86.5203   15.3914 N.ar    1  UNL1       -0.3066
     21 C          63.2831   85.9149   16.6446 C.ar    1  UNL1        0.0981
     22 C          62.8334   87.0323   17.5385 C.ar    1  UNL1        0.1193
     23 N          63.1149   88.3283   16.8378 N.ar    1  UNL1       -0.2223
     24 C          63.7386   88.0119   15.5108 C.ar    1  UNL1        0.1786
@<TRIPOS>BOND
     1    12    13    1
     2    13    14   ar
     3    14    15   ar
     4    15    16   ar
     5    16    11    1
     6    11    10    1
     7    10     1    1
     8     1    19    1
     9    19    20    1
    10    20    21   ar
    11    21    22   ar
    12    22    23   ar
    13    23    24   ar
    14     1     2    1
    15     2     3   ar
    16     3     4   ar
    17     4     5   ar
    18     5     6    1
    19     5     7   ar
    20     7     8   ar
    21     8     9    1
    22    16    17   ar
    23    17    18   ar
    24    18    13   ar
    25    24    20   ar
    26     8     2   ar
@<TRIPOS>MOLECULE
*****
 24 26 0 0 0
SMALL
GASTEIGER

@<TRIPOS>ATOM
      1 C          61.4517   87.2003   10.4962 C.3     1  UNL1        0.0935
      2 C          61.5586   86.4214    9.2187 C.ar    1  UNL1        0.0001
      3 C          62.8531   85.7592    8.8500 C.ar    1  UNL1       -0.0017
      4 C          62.9599   84.9804    7.5726 C.ar    1  UNL1        0.0112
      5 C          61.7723   84.8636    6.6638 C.ar    1  UNL1        0.0585
      6 CL         61.8792   84.0847    5.3863 Cl      1  UNL1       -0.0822
      7 C          60.4778   85.5257    7.0324 C.ar    1  UNL1        0.0225
      8 C          60.3710   86.3046    8.3099 C.ar    1  UNL1        0.0554
      9 CL         59.0765   86.9668    8.6786 Cl      1  UNL1       -0.0825
     10 S          61.6089   86.5032   11.8150 S.3     1  UNL1       -0.1298
     11 C          62.8502   85.7112   12.1015 C.3     1  UNL1        0.0841
     12 CL         62.4362   79.9019   13.5441 Cl      1  UNL1       -0.0822
     13 C          62.5397   81.3543   13.1834 C.ar    1  UNL1        0.0577
     14 C          62.3334   82.4045   14.2343 C.ar    1  UNL1        0.0111
     15 C          62.4369   83.8569   13.8736 C.ar    1  UNL1       -0.0025
     16 C          62.7467   84.2589   12.4621 C.ar    1  UNL1       -0.0113
     17 C          62.9529   83.2086   11.4113 C.ar    1  UNL1       -0.0025
     18 C          62.8494   81.7563   11.7719 C.ar    1  UNL1        0.0111
     19 C          61.1878   88.6763   10.4548 C.3     1  UNL1        0.1228
     20 N          62.2281   89.6383   10.9469 N.ar    1  UNL1       -0.3066
     21 C          62.7608   89.7211   12.3466 C.ar    1  UNL1        0.0981
     22 C          63.7803   90.8205   12.3904 C.ar    1  UNL1        0.1193
     23 N          63.8778   91.4172   11.0176 N.ar    1  UNL1       -0.2223
     24 C          62.9185   90.6866   10.1255 C.ar    1  UNL1        0.1786
@<TRIPOS>BOND
     1    12    13    1
     2    13    14   ar
     3    14    15   ar
     4    15    16   ar
     5    16    11    1
     6    11    10    1
     7    10     1    1
     8     1    19    1
     9    19    20    1
    10    20    21   ar
    11    21    22   ar
    12    22    23   ar
    13    23    24   ar
    14     1     2    1
    15     2     3   ar
    16     3     4   ar
    17     4     5   ar
    18     5     6    1
    19     5     7   ar
    20     7     8   ar
    21     8     9    1
    22    16    17   ar
    23    17    18   ar
    24    18    13   ar
    25    24    20   ar
    26     8     2   ar
@<TRIPOS>MOLECULE
*****
 24 26 0 0 0
SMALL
GASTEIGER

@<TRIPOS>ATOM
      1 C          61.8447   87.4069   11.0017 C.3     1  UNL1        0.0935
      2 C          62.4201   86.0264   11.1173 C.ar    1  UNL1        0.0001
      3 C          62.5917   85.3960   12.4676 C.ar    1  UNL1       -0.0017
      4 C          63.1670   84.0156   12.5832 C.ar    1  UNL1        0.0112
      5 C          63.5707   83.2654   11.3485 C.ar    1  UNL1        0.0585
      6 CL         64.1460   81.8850   11.4641 Cl      1  UNL1       -0.0822
      7 C          63.3991   83.8958    9.9983 C.ar    1  UNL1        0.0225
      8 C          62.8237   85.2763    9.8827 C.ar    1  UNL1        0.0554
      9 CL         62.6521   85.9066    8.5324 Cl      1  UNL1       -0.0825
     10 S          62.7396   88.6048   11.1214 S.3     1  UNL1       -0.1298
     11 C          62.5426   89.5789   12.2449 C.3     1  UNL1        0.0841
     12 CL         67.1563   92.8816   14.1958 Cl      1  UNL1       -0.0822
     13 C          66.0028   92.0559   13.7080 C.ar    1  UNL1        0.0577
     14 C          65.5179   90.8914   14.5196 C.ar    1  UNL1        0.0111
     15 C          64.3645   90.0657   14.0319 C.ar    1  UNL1       -0.0025
     16 C          63.6960   90.4045   12.7326 C.ar    1  UNL1       -0.0113
     17 C          64.1809   91.5691   11.9210 C.ar    1  UNL1       -0.0025
     18 C          65.3343   92.3947   12.4087 C.ar    1  UNL1        0.0111
     19 C          60.3746   87.5895   10.7665 C.3     1  UNL1        0.1228
     20 N          59.8615   87.8301    9.3777 N.ar    1  UNL1       -0.3066
     21 C          60.0186   89.0948    8.5865 C.ar    1  UNL1        0.0981
     22 C          59.3554   88.8947    7.2561 C.ar    1  UNL1        0.1193
     23 N          58.7883   87.5064    7.2250 N.ar    1  UNL1       -0.2223
     24 C          59.1011   86.8485    8.5362 C.ar    1  UNL1        0.1786
@<TRIPOS>BOND
     1    12    13    1
     2    13    14   ar
     3    14    15   ar
     4    15    16   ar
     5    16    11    1
     6    11    10    1
     7    10     1    1
     8     1    19    1
     9    19    20    1
    10    20    21   ar
    11    21    22   ar
    12    22    23   ar
    13    23    24   ar
    14     1     2    1
    15     2     3   ar
    16     3     4   ar
    17     4     5   ar
    18     5     6    1
    19     5     7   ar
    20     7     8   ar
    21     8     9    1
    22    16    17   ar
    23    17    18   ar
    24    18    13   ar
    25    24    20   ar
    26     8     2   ar
@<TRIPOS>MOLECULE
*****
 24 26 0 0 0
SMALL
GASTEIGER

@<TRIPOS>ATOM
      1 C          63.5322   85.5370   13.2489 C.3     1  UNL1        0.0935
      2 C          63.2055   84.0730   13.2446 C.ar    1  UNL1        0.0001
      3 C          63.7426   83.1880   12.1591 C.ar    1  UNL1       -0.0017
      4 C          63.4160   81.7240   12.1547 C.ar    1  UNL1        0.0112
      5 C          62.5523   81.1450   13.2358 C.ar    1  UNL1        0.0585
      6 CL         62.2257   79.6810   13.2314 Cl      1  UNL1       -0.0822
      7 C          62.0152   82.0300   14.3213 C.ar    1  UNL1        0.0225
      8 C          62.3419   83.4940   14.3257 C.ar    1  UNL1        0.0554
      9 CL         61.8048   84.3790   15.4112 Cl      1  UNL1       -0.0825
     10 S          62.9667   86.4348   12.1887 S.3     1  UNL1       -0.1298
     11 C          61.7245   86.0331   11.4501 C.3     1  UNL1        0.0841
     12 CL         62.0126   84.6697    5.6141 Cl      1  UNL1       -0.0822
     13 C          61.9406   85.0106    7.0731 C.ar    1  UNL1        0.0577
     14 C          60.7462   85.7383    7.6152 C.ar    1  UNL1        0.0111
     15 C          60.6742   86.0791    9.0742 C.ar    1  UNL1       -0.0025
     16 C          61.7965   85.6923    9.9911 C.ar    1  UNL1       -0.0113
     17 C          62.9909   84.9645    9.4490 C.ar    1  UNL1       -0.0025
     18 C          63.0629   84.6237    7.9900 C.ar    1  UNL1        0.0111
     19 C          64.4244   86.1032   14.3135 C.3     1  UNL1        0.1228
     20 N          64.0295   87.3585   15.0336 N.ar    1  UNL1       -0.3066
     21 C          64.2681   88.7606   14.5569 C.ar    1  UNL1        0.0981
     22 C          63.7128   89.7007   15.5854 C.ar    1  UNL1        0.1193
     23 N          63.1310   88.8796   16.6978 N.ar    1  UNL1       -0.2223
     24 C          63.3267   87.4321   16.3567 C.ar    1  UNL1        0.1786
@<TRIPOS>BOND
     1    12    13    1
     2    13    14   ar
     3    14    15   ar
     4    15    16   ar
     5    16    11    1
     6    11    10    1
     7    10     1    1
     8     1    19    1
     9    19    20    1
    10    20    21   ar
    11    21    22   ar
    12    22    23   ar
    13    23    24   ar
    14     1     2    1
    15     2     3   ar
    16     3     4   ar
    17     4     5   ar
    18     5     6    1
    19     5     7   ar
    20     7     8   ar
    21     8     9    1
    22    16    17   ar
    23    17    18   ar
    24    18    13   ar
    25    24    20   ar
    26     8     2   ar
@<TRIPOS>MOLECULE
*****
 24 26 0 0 0
SMALL
GASTEIGER

@<TRIPOS>ATOM
      1 C          63.4630   85.4613   13.1698 C.3     1  UNL1        0.0935
      2 C          63.1659   83.9909   13.1737 C.ar    1  UNL1        0.0001
      3 C          63.6480   83.1254   12.0474 C.ar    1  UNL1       -0.0017
      4 C          63.3509   81.6552   12.0512 C.ar    1  UNL1        0.0112
      5 C          62.5716   81.0504   13.1813 C.ar    1  UNL1        0.0585
      6 CL         62.2745   79.5801   13.1851 Cl      1  UNL1       -0.0822
      7 C          62.0895   81.9159   14.3076 C.ar    1  UNL1        0.0225
      8 C          62.3867   83.3862   14.3037 C.ar    1  UNL1        0.0554
      9 CL         61.9046   84.2517   15.4300 Cl      1  UNL1       -0.0825
     10 S          62.8219   86.3533   12.1484 S.3     1  UNL1       -0.1298
     11 C          61.7166   85.8274   11.2814 C.3     1  UNL1        0.0841
     12 CL         59.3376   89.3082    7.0124 Cl      1  UNL1       -0.0822
     13 C          59.9324   88.4380    8.0797 C.ar    1  UNL1        0.0577
     14 C          60.0239   86.9550    7.8737 C.ar    1  UNL1        0.0111
     15 C          60.6186   86.0848    8.9409 C.ar    1  UNL1       -0.0025
     16 C          61.1219   86.6976   10.2142 C.ar    1  UNL1       -0.0113
     17 C          61.0304   88.1805   10.4202 C.ar    1  UNL1       -0.0025
     18 C          60.4357   89.0507    9.3529 C.ar    1  UNL1        0.0111
     19 C          64.4012   86.0395   14.1873 C.3     1  UNL1        0.1228
     20 N          64.0092   87.2653   14.9578 N.ar    1  UNL1       -0.3066
     21 C          64.1844   88.6846   14.5054 C.ar    1  UNL1        0.0981
     22 C          63.6567   89.5836   15.5840 C.ar    1  UNL1        0.1193
     23 N          63.1553   88.7198   16.7031 N.ar    1  UNL1       -0.2223
     24 C          63.3732   87.2870   16.3161 C.ar    1  UNL1        0.1786
@<TRIPOS>BOND
     1    12    13    1
     2    13    14   ar
     3    14    15   ar
     4    15    16   ar
     5    16    11    1
     6    11    10    1
     7    10     1    1
     8     1    19    1
     9    19    20    1
    10    20    21   ar
    11    21    22   ar
    12    22    23   ar
    13    23    24   ar
    14     1     2    1
    15     2     3   ar
    16     3     4   ar
    17     4     5   ar
    18     5     6    1
    19     5     7   ar
    20     7     8   ar
    21     8     9    1
    22    16    17   ar
    23    17    18   ar
    24    18    13   ar
    25    24    20   ar
    26     8     2   ar
@<TRIPOS>MOLECULE
*****
 24 26 0 0 0
SMALL
GASTEIGER

@<TRIPOS>ATOM
      1 C          63.2178   84.8231   13.2795 C.3     1  UNL1        0.0935
      2 C          63.1118   84.8008   11.7834 C.ar    1  UNL1        0.0001
      3 C          63.9906   83.8861   10.9827 C.ar    1  UNL1       -0.0017
      4 C          63.8846   83.8638    9.4867 C.ar    1  UNL1        0.0112
      5 C          62.8998   84.7563    8.7912 C.ar    1  UNL1        0.0585
      6 CL         62.7938   84.7340    7.2951 Cl      1  UNL1       -0.0822
      7 C          62.0210   85.6711    9.5918 C.ar    1  UNL1        0.0225
      8 C          62.1270   85.6933   11.0879 C.ar    1  UNL1        0.0554
      9 CL         61.2483   86.6081   11.8885 Cl      1  UNL1       -0.0825
     10 S          64.2310   85.7054   13.9465 S.3     1  UNL1       -0.1298
     11 C          63.7846   86.9216   14.7025 C.3     1  UNL1        0.0841
     12 CL         64.7680   92.3902   12.4381 Cl      1  UNL1       -0.0822
     13 C          64.5221   91.0230   13.0042 C.ar    1  UNL1        0.0577
     14 C          63.6941   90.0327   12.2403 C.ar    1  UNL1        0.0111
     15 C          63.4482   88.6656   12.8064 C.ar    1  UNL1       -0.0025
     16 C          64.0304   88.2887   14.1364 C.ar    1  UNL1       -0.0113
     17 C          64.8585   89.2790   14.9003 C.ar    1  UNL1       -0.0025
     18 C          65.1043   90.6462   14.3342 C.ar    1  UNL1        0.0111
     19 C          62.3107   83.9630   14.1085 C.3     1  UNL1        0.1228
     20 N          62.4608   82.4708   14.0817 N.ar    1  UNL1       -0.3066
     21 C          61.3426   81.4733   14.0126 C.ar    1  UNL1        0.0981
     22 C          61.9461   80.1000   14.0074 C.ar    1  UNL1        0.1193
     23 N          63.4373   80.2488   14.0732 N.ar    1  UNL1       -0.2223
     24 C          63.7553   81.7140   14.1191 C.ar    1  UNL1        0.1786
@<TRIPOS>BOND
     1    12    13    1
     2    13    14   ar
     3    14    15   ar
     4    15    16   ar
     5    16    11    1
     6    11    10    1
     7    10     1    1
     8     1    19    1
     9    19    20    1
    10    20    21   ar
    11    21    22   ar
    12    22    23   ar
    13    23    24   ar
    14     1     2    1
    15     2     3   ar
    16     3     4   ar
    17     4     5   ar
    18     5     6    1
    19     5     7   ar
    20     7     8   ar
    21     8     9    1
    22    16    17   ar
    23    17    18   ar
    24    18    13   ar
    25    24    20   ar
    26     8     2   ar
@<TRIPOS>MOLECULE
*****
 24 26 0 0 0
SMALL
GASTEIGER

@<TRIPOS>ATOM
      1 C          63.1656   83.7694   12.5994 C.3     1  UNL1        0.0935
      2 C          63.0670   82.3662   12.0784 C.ar    1  UNL1        0.0001
      3 C          62.5581   81.2703   12.9673 C.ar    1  UNL1       -0.0017
      4 C          62.4596   79.8671   12.4464 C.ar    1  UNL1        0.0112
      5 C          62.8699   79.5598   11.0367 C.ar    1  UNL1        0.0585
      6 CL         62.7713   78.1566   10.5158 Cl      1  UNL1       -0.0822
      7 C          63.3788   80.6557   10.1479 C.ar    1  UNL1        0.0225
      8 C          63.4773   82.0589   10.6688 C.ar    1  UNL1        0.0554
      9 CL         63.9862   83.1548    9.7800 Cl      1  UNL1       -0.0825
     10 S          62.3263   84.8550   11.9935 S.3     1  UNL1       -0.1298
     11 C          62.9559   86.1581   11.5992 C.3     1  UNL1        0.0841
     12 CL         59.5985   91.1153   11.2072 Cl      1  UNL1       -0.0822
     13 C          60.4378   89.8760   11.3052 C.ar    1  UNL1        0.0577
     14 C          61.8535   89.9656   11.7927 C.ar    1  UNL1        0.0111
     15 C          62.6929   88.7263   11.8907 C.ar    1  UNL1       -0.0025
     16 C          62.1166   87.3974   11.5012 C.ar    1  UNL1       -0.0113
     17 C          60.7009   87.3078   11.0136 C.ar    1  UNL1       -0.0025
     18 C          59.8615   88.5470   10.9156 C.ar    1  UNL1        0.0111
     19 C          64.1034   84.0870   13.7261 C.3     1  UNL1        0.1228
     20 N          63.6143   84.8634   14.9127 N.ar    1  UNL1       -0.3066
     21 C          64.1743   86.1642   15.4070 C.ar    1  UNL1        0.0981
     22 C          63.3855   86.5801   16.6132 C.ar    1  UNL1        0.1193
     23 N          62.3380   85.5362   16.8645 N.ar    1  UNL1       -0.2223
     24 C          62.4795   84.4753   15.8135 C.ar    1  UNL1        0.1786
@<TRIPOS>BOND
     1    12    13    1
     2    13    14   ar
     3    14    15   ar
     4    15    16   ar
     5    16    11    1
     6    11    10    1
     7    10     1    1
     8     1    19    1
     9    19    20    1
    10    20    21   ar
    11    21    22   ar
    12    22    23   ar
    13    23    24   ar
    14     1     2    1
    15     2     3   ar
    16     3     4   ar
    17     4     5   ar
    18     5     6    1
    19     5     7   ar
    20     7     8   ar
    21     8     9    1
    22    16    17   ar
    23    17    18   ar
    24    18    13   ar
    25    24    20   ar
    26     8     2   ar
