@<TRIPOS>MOLECULE
*****
 31 34 0 0 0
SMALL
GASTEIGER

@<TRIPOS>ATOM
      1 C          61.1735   86.7612    9.7886 C.ar    1  UNL1        0.1104
      2 C          61.1797   88.2433   10.0199 C.ar    1  UNL1        0.0185
      3 C          60.4711   89.1548    9.0624 C.ar    1  UNL1       -0.0013
      4 C          59.7562   88.5843    7.8735 C.ar    1  UNL1       -0.0025
      5 C          59.7499   87.1023    7.6421 C.ar    1  UNL1       -0.0013
      6 C          60.4586   86.1907    8.5997 C.ar    1  UNL1        0.0185
      7 S          61.8822   85.8497   10.7461 S.O2    1  UNL1        0.0305
      8 O          61.1600   86.4928   11.8928 O.2     1  UNL1       -0.1641
      9 O          62.6043   85.2065    9.5995 O.2     1  UNL1       -0.1641
     10 N          63.4751   82.9431   12.7660 N.ar    1  UNL1       -0.2481
     11 C          62.6737   83.4440   11.6011 C.ar    1  UNL1        0.1154
     12 C          62.5908   84.9382   11.7036 C.ar    1  UNL1        0.1497
     13 C          63.3410   85.3608   12.9319 C.ar    1  UNL1        0.1404
     14 N          63.8876   84.1279   13.5884 N.ar    1  UNL1       -0.1662
     15 C          63.8060   81.5094   13.0572 C.3     1  UNL1        0.1276
     16 C          61.4607   81.0951   14.0954 C.3     1  UNL1        0.0021
     17 C          62.7253   80.5630   13.4891 C.3     1  UNL1        0.0264
     18 C          59.0475   89.4959    6.9159 C.3     1  UNL1        0.1167
     19 N          59.8291   90.2537    5.8840 N.am    1  UNL1       -0.2944
     20 C          59.1389   91.2557    5.0068 C.2     1  UNL1        0.2808
     21 O          57.6670   91.4998    5.1615 O.2     1  UNL1       -0.2668
     22 H          60.7952   90.0934    5.7825 H       1  UNL1        0.1501
     23 C          59.9205   92.0135    3.9749 C.ar    1  UNL1        0.1984
     24 C          61.3534   91.7732    3.6022 C.ar    1  UNL1        0.0453
     25 C          61.7250   92.7559    2.5315 C.ar    1  UNL1        0.0409
     26 C          63.0035   92.9884    1.7824 C.ar    1  UNL1        0.0238
     27 C          63.0787   94.0685    0.7443 C.ar    1  UNL1        0.0991
     28 N          61.8754   94.9161    0.4553 N.ar    1  UNL1       -0.2391
     29 C          60.5968   94.6836    1.2044 C.ar    1  UNL1        0.1362
     30 C          60.5216   93.6035    2.2425 C.ar    1  UNL1        0.1646
     31 O          59.4064   93.1447    3.1346 O.2     1  UNL1       -0.4473
@<TRIPOS>BOND
     1    16    17    1
     2    17    15    1
     3    15    10    1
     4    10    11   ar
     5    11    12   ar
     6    12     7    1
     7     7     8    2
     8     7     9    2
     9     7     1    1
    10     1     2   ar
    11     2     3   ar
    12     3     4   ar
    13     4    18    1
    14    18    19    1
    15    19    20   am
    16    20    21    2
    17    20    23    1
    18    23    24   ar
    19    24    25   ar
    20    25    26   ar
    21    26    27   ar
    22    27    28   ar
    23    28    29   ar
    24    29    30   ar
    25    30    31   ar
    26     4     5   ar
    27     5     6   ar
    28    12    13   ar
    29    13    14   ar
    30    14    10   ar
    31     6     1   ar
    32    31    23   ar
    33    30    25   ar
    34    19    22    1
@<TRIPOS>MOLECULE
*****
 31 34 0 0 0
SMALL
GASTEIGER

@<TRIPOS>ATOM
      1 C          61.1565   86.7673    9.5582 C.ar    1  UNL1        0.1104
      2 C          61.2310   88.2499    9.7739 C.ar    1  UNL1        0.0185
      3 C          60.4965   89.1794    8.8539 C.ar    1  UNL1       -0.0013
      4 C          59.6874   88.6265    7.7183 C.ar    1  UNL1       -0.0025
      5 C          59.6129   87.1439    7.5026 C.ar    1  UNL1       -0.0013
      6 C          60.3475   86.2143    8.4226 C.ar    1  UNL1        0.0185
      7 S          61.8910   85.8378   10.4782 S.O2    1  UNL1        0.0305
      8 O          61.1323   86.3943   11.6463 O.2     1  UNL1       -0.1641
      9 O          62.6498   85.2813    9.3101 O.2     1  UNL1       -0.1641
     10 N          63.5814   83.9166   13.3966 N.ar    1  UNL1       -0.2481
     11 C          62.7750   85.0718   12.8817 C.ar    1  UNL1        0.1154
     12 C          62.6256   84.9082   11.3981 C.ar    1  UNL1        0.1497
     13 C          63.3397   83.6519   10.9961 C.ar    1  UNL1        0.1404
     14 N          63.9305   83.0390   12.2311 N.ar    1  UNL1       -0.1662
     15 C          63.9705   83.6803   14.8258 C.3     1  UNL1        0.1276
     16 C          63.6277   85.6772   16.4522 C.3     1  UNL1        0.0021
     17 C          63.1988   84.3374   15.9316 C.3     1  UNL1        0.0264
     18 C          58.9529   89.5561    6.7983 C.3     1  UNL1        0.1167
     19 N          59.7017   90.3107    5.7400 N.am    1  UNL1       -0.2944
     20 C          59.0082   91.3793    4.9482 C.2     1  UNL1        0.2808
     21 O          57.5659   91.6934    5.2147 O.2     1  UNL1       -0.2668
     22 H          60.6483   90.1045    5.5652 H       1  UNL1        0.1501
     23 C          59.7570   92.1339    3.8900 C.ar    1  UNL1        0.1984
     24 C          61.2224   92.0151    3.5924 C.ar    1  UNL1        0.0453
     25 C          61.5429   92.9475    2.4620 C.ar    1  UNL1        0.0409
     26 C          62.8250   93.2534    1.7461 C.ar    1  UNL1        0.0238
     27 C          62.8399   94.2544    0.6291 C.ar    1  UNL1        0.0991
     28 N          61.5726   94.9496    0.2281 N.ar    1  UNL1       -0.2391
     29 C          60.2905   94.6437    0.9440 C.ar    1  UNL1        0.1362
     30 C          60.2757   93.6426    2.0609 C.ar    1  UNL1        0.1646
     31 O          59.1719   93.1398    2.9435 O.2     1  UNL1       -0.4473
@<TRIPOS>BOND
     1    16    17    1
     2    17    15    1
     3    15    10    1
     4    10    11   ar
     5    11    12   ar
     6    12     7    1
     7     7     8    2
     8     7     9    2
     9     7     1    1
    10     1     2   ar
    11     2     3   ar
    12     3     4   ar
    13     4    18    1
    14    18    19    1
    15    19    20   am
    16    20    21    2
    17    20    23    1
    18    23    24   ar
    19    24    25   ar
    20    25    26   ar
    21    26    27   ar
    22    27    28   ar
    23    28    29   ar
    24    29    30   ar
    25    30    31   ar
    26     4     5   ar
    27     5     6   ar
    28    12    13   ar
    29    13    14   ar
    30    14    10   ar
    31     6     1   ar
    32    31    23   ar
    33    30    25   ar
    34    19    22    1
@<TRIPOS>MOLECULE
*****
 31 34 0 0 0
SMALL
GASTEIGER

@<TRIPOS>ATOM
      1 C          63.7053   86.3345   13.8634 C.ar    1  UNL1        0.1104
      2 C          64.2765   86.7854   15.1751 C.ar    1  UNL1        0.0185
      3 C          64.5520   88.2406   15.4126 C.ar    1  UNL1       -0.0013
      4 C          64.2561   89.2450   14.3385 C.ar    1  UNL1       -0.0025
      5 C          63.6849   88.7942   13.0269 C.ar    1  UNL1       -0.0013
      6 C          63.4095   87.3389   12.7893 C.ar    1  UNL1        0.0185
      7 S          63.4298   84.8793   13.6259 S.O2    1  UNL1        0.0305
      8 O          62.1451   85.2347   12.9381 O.2     1  UNL1       -0.1641
      9 O          64.7146   84.5239   14.3137 O.2     1  UNL1       -0.1641
     10 N          62.1248   81.2275   13.4631 N.ar    1  UNL1       -0.2481
     11 C          62.0124   82.6380   13.9610 C.ar    1  UNL1        0.1154
     12 C          63.1544   83.4241   13.3884 C.ar    1  UNL1        0.1497
     13 C          63.9726   82.4995   12.5366 C.ar    1  UNL1        0.1404
     14 N          63.3363   81.1419   12.5828 N.ar    1  UNL1       -0.1662
     15 C          61.1899   80.1005   13.7884 C.3     1  UNL1        0.1276
     16 C          58.8509   79.2686   14.5545 C.3     1  UNL1        0.0021
     17 C          59.7709   80.3918   14.1777 C.3     1  UNL1        0.0264
     18 C          64.5316   90.7003   14.5761 C.3     1  UNL1        0.1167
     19 N          64.8001   91.6120   13.4156 N.am    1  UNL1       -0.2944
     20 C          66.0985   92.3584   13.3329 C.2     1  UNL1        0.2808
     21 O          67.1284   92.1932   14.4108 O.2     1  UNL1       -0.2668
     22 H          64.1241   91.7204   12.7081 H       1  UNL1        0.1501
     23 C          66.3670   93.2701   12.1724 C.ar    1  UNL1        0.1984
     24 C          66.8968   92.8574   10.8312 C.ar    1  UNL1        0.0453
     25 C          67.0100   94.0868    9.9792 C.ar    1  UNL1        0.0409
     26 C          67.4724   94.2900    8.5668 C.ar    1  UNL1        0.0238
     27 C          67.4750   95.6658    7.9692 C.ar    1  UNL1        0.0991
     28 N          67.0152   96.8383    8.7839 N.ar    1  UNL1       -0.2391
     29 C          66.5528   96.6351   10.1963 C.ar    1  UNL1        0.1362
     30 C          66.5502   95.2593   10.7939 C.ar    1  UNL1        0.1646
     31 O          66.1528   94.7545   12.1494 O.2     1  UNL1       -0.4473
@<TRIPOS>BOND
     1    16    17    1
     2    17    15    1
     3    15    10    1
     4    10    11   ar
     5    11    12   ar
     6    12     7    1
     7     7     8    2
     8     7     9    2
     9     7     1    1
    10     1     2   ar
    11     2     3   ar
    12     3     4   ar
    13     4    18    1
    14    18    19    1
    15    19    20   am
    16    20    21    2
    17    20    23    1
    18    23    24   ar
    19    24    25   ar
    20    25    26   ar
    21    26    27   ar
    22    27    28   ar
    23    28    29   ar
    24    29    30   ar
    25    30    31   ar
    26     4     5   ar
    27     5     6   ar
    28    12    13   ar
    29    13    14   ar
    30    14    10   ar
    31     6     1   ar
    32    31    23   ar
    33    30    25   ar
    34    19    22    1
@<TRIPOS>MOLECULE
*****
 31 34 0 0 0
SMALL
GASTEIGER

@<TRIPOS>ATOM
      1 C          60.8456   92.5729    2.9040 C.ar    1  UNL1        0.1104
      2 C          61.7000   91.6222    3.6890 C.ar    1  UNL1        0.0185
      3 C          61.0972   90.8138    4.7994 C.ar    1  UNL1       -0.0013
      4 C          59.6398   90.9561    5.1248 C.ar    1  UNL1       -0.0025
      5 C          58.7854   91.9067    4.3399 C.ar    1  UNL1       -0.0013
      6 C          59.3882   92.7151    3.2294 C.ar    1  UNL1        0.0185
      7 S          61.4485   93.3813    1.7936 S.O2    1  UNL1        0.0305
      8 O          60.5476   94.5294    2.1403 O.2     1  UNL1       -0.1641
      9 O          62.3494   92.2332    1.4469 O.2     1  UNL1       -0.1641
     10 N          63.2926   94.8132   -1.3071 N.ar    1  UNL1       -0.2481
     11 C          62.9130   93.6609   -0.4250 C.ar    1  UNL1        0.1154
     12 C          62.0513   94.1897    0.6832 C.ar    1  UNL1        0.1497
     13 C          61.8984   95.6687    0.4860 C.ar    1  UNL1        0.1404
     14 N          62.6656   96.0541   -0.7440 N.ar    1  UNL1       -0.1662
     15 C          64.1489   94.7378   -2.5363 C.3     1  UNL1        0.1276
     16 C          64.2883   92.7179   -4.1644 C.3     1  UNL1        0.0021
     17 C          63.6532   94.0129   -3.7524 C.3     1  UNL1        0.0264
     18 C          59.0370   90.1476    6.2353 C.3     1  UNL1        0.1167
     19 N          59.8911   89.6939    7.3818 N.am    1  UNL1       -0.2944
     20 C          59.6758   88.3385    7.9870 C.2     1  UNL1        0.2808
     21 O          58.6063   87.4367    7.4458 O.2     1  UNL1       -0.2668
     22 H          60.5931   90.2857    7.7370 H       1  UNL1        0.1501
     23 C          60.5300   87.8847    9.1336 C.ar    1  UNL1        0.1984
     24 C          60.7239   86.4663    9.5813 C.ar    1  UNL1        0.0453
     25 C          61.6540   86.4747   10.7581 C.ar    1  UNL1        0.0409
     26 C          62.2033   85.3700   11.6112 C.ar    1  UNL1        0.0238
     27 C          63.1335   85.6889   12.7439 C.ar    1  UNL1        0.0991
     28 N          63.5145   87.1125   13.0234 N.ar    1  UNL1       -0.2391
     29 C          62.9652   88.2172   12.1703 C.ar    1  UNL1        0.1362
     30 C          62.0350   87.8983   11.0377 C.ar    1  UNL1        0.1646
     31 O          61.3403   88.7697   10.0336 O.2     1  UNL1       -0.4473
@<TRIPOS>BOND
     1    16    17    1
     2    17    15    1
     3    15    10    1
     4    10    11   ar
     5    11    12   ar
     6    12     7    1
     7     7     8    2
     8     7     9    2
     9     7     1    1
    10     1     2   ar
    11     2     3   ar
    12     3     4   ar
    13     4    18    1
    14    18    19    1
    15    19    20   am
    16    20    21    2
    17    20    23    1
    18    23    24   ar
    19    24    25   ar
    20    25    26   ar
    21    26    27   ar
    22    27    28   ar
    23    28    29   ar
    24    29    30   ar
    25    30    31   ar
    26     4     5   ar
    27     5     6   ar
    28    12    13   ar
    29    13    14   ar
    30    14    10   ar
    31     6     1   ar
    32    31    23   ar
    33    30    25   ar
    34    19    22    1
@<TRIPOS>MOLECULE
*****
 31 34 0 0 0
SMALL
GASTEIGER

@<TRIPOS>ATOM
      1 C          60.2643   92.0968    3.6748 C.ar    1  UNL1        0.1104
      2 C          58.8105   92.1404    4.0419 C.ar    1  UNL1        0.0185
      3 C          58.2919   91.2791    5.1550 C.ar    1  UNL1       -0.0013
      4 C          59.2271   90.3742    5.9012 C.ar    1  UNL1       -0.0025
      5 C          60.6808   90.3306    5.5342 C.ar    1  UNL1       -0.0013
      6 C          61.1994   91.1919    4.4210 C.ar    1  UNL1        0.0185
      7 S          60.7829   92.9581    2.5617 S.O2    1  UNL1        0.0305
      8 O          59.3807   93.3766    2.2322 O.2     1  UNL1       -0.1641
      9 O          62.1851   92.5396    2.8911 O.2     1  UNL1       -0.1641
     10 N          62.3711   94.5364   -0.6089 N.ar    1  UNL1       -0.2481
     11 C          62.0456   93.3412    0.2370 C.ar    1  UNL1        0.1154
     12 C          61.3015   93.8194    1.4485 C.ar    1  UNL1        0.1497
     13 C          61.1670   95.3102    1.3513 C.ar    1  UNL1        0.1404
     14 N          61.8280   95.7533    0.0798 N.ar    1  UNL1       -0.1662
     15 C          63.1098   94.5179   -1.9142 C.3     1  UNL1        0.1276
     16 C          63.9186   93.2265   -4.0184 C.3     1  UNL1        0.0021
     17 C          63.0874   93.2871   -2.7713 C.3     1  UNL1        0.0264
     18 C          58.7084   89.5128    7.0144 C.3     1  UNL1        0.1167
     19 N          59.5393   88.3768    7.5331 N.am    1  UNL1       -0.2944
     20 C          60.1381   88.4514    8.9063 C.2     1  UNL1        0.2808
     21 O          59.9060   89.6621    9.7609 O.2     1  UNL1       -0.2668
     22 H          59.6916   87.5821    6.9722 H       1  UNL1        0.1501
     23 C          60.9689   87.3154    9.4250 C.ar    1  UNL1        0.1984
     24 C          61.8560   86.4258    8.6054 C.ar    1  UNL1        0.0453
     25 C          62.4939   85.4300    9.5282 C.ar    1  UNL1        0.0409
     26 C          63.4599   84.3091    9.2825 C.ar    1  UNL1        0.0238
     27 C          63.9330   83.4624   10.4266 C.ar    1  UNL1        0.0991
     28 N          63.4401   83.7365   11.8166 N.ar    1  UNL1       -0.2391
     29 C          62.4742   84.8575   12.0623 C.ar    1  UNL1        0.1362
     30 C          62.0011   85.7042   10.9182 C.ar    1  UNL1        0.1646
     31 O          61.0586   86.8694   10.8544 O.2     1  UNL1       -0.4473
@<TRIPOS>BOND
     1    16    17    1
     2    17    15    1
     3    15    10    1
     4    10    11   ar
     5    11    12   ar
     6    12     7    1
     7     7     8    2
     8     7     9    2
     9     7     1    1
    10     1     2   ar
    11     2     3   ar
    12     3     4   ar
    13     4    18    1
    14    18    19    1
    15    19    20   am
    16    20    21    2
    17    20    23    1
    18    23    24   ar
    19    24    25   ar
    20    25    26   ar
    21    26    27   ar
    22    27    28   ar
    23    28    29   ar
    24    29    30   ar
    25    30    31   ar
    26     4     5   ar
    27     5     6   ar
    28    12    13   ar
    29    13    14   ar
    30    14    10   ar
    31     6     1   ar
    32    31    23   ar
    33    30    25   ar
    34    19    22    1
@<TRIPOS>MOLECULE
*****
 31 34 0 0 0
SMALL
GASTEIGER

@<TRIPOS>ATOM
      1 C          61.4849   87.9136   10.1460 C.ar    1  UNL1        0.1104
      2 C          61.1517   87.0166    8.9908 C.ar    1  UNL1        0.0185
      3 C          60.3646   87.5493    7.8303 C.ar    1  UNL1       -0.0013
      4 C          59.9106   88.9789    7.8250 C.ar    1  UNL1       -0.0025
      5 C          60.2438   89.8759    8.9802 C.ar    1  UNL1       -0.0013
      6 C          61.0310   89.3432   10.1407 C.ar    1  UNL1        0.0185
      7 S          62.2721   87.3809   11.3064 S.O2    1  UNL1        0.0305
      8 O          62.5115   88.7815   11.7869 O.2     1  UNL1       -0.1641
      9 O          62.0326   85.9803   10.8259 O.2     1  UNL1       -0.1641
     10 N          64.0996   85.3278   14.0468 N.ar    1  UNL1       -0.2481
     11 C          63.2454   85.4014   12.8160 C.ar    1  UNL1        0.1154
     12 C          63.0592   86.8482   12.4668 C.ar    1  UNL1        0.1497
     13 C          63.7983   87.6689   13.4818 C.ar    1  UNL1        0.1404
     14 N          64.4413   86.7292   14.4583 N.ar    1  UNL1       -0.1662
     15 C          64.5356   84.0731   14.7438 C.3     1  UNL1        0.1276
     16 C          62.3897   82.6104   14.8179 C.3     1  UNL1        0.0021
     17 C          63.8370   82.7763   14.4605 C.3     1  UNL1        0.0264
     18 C          59.1235   89.5116    6.6645 C.3     1  UNL1        0.1167
     19 N          59.7861   90.3991    5.6530 N.am    1  UNL1       -0.2944
     20 C          58.9752   91.4075    4.8943 C.2     1  UNL1        0.2808
     21 O          57.5017   91.5283    5.1472 O.2     1  UNL1       -0.2668
     22 H          60.7533   90.3198    5.4870 H       1  UNL1        0.1501
     23 C          59.6379   92.2950    3.8828 C.ar    1  UNL1        0.1984
     24 C          60.5356   91.8449    2.7686 C.ar    1  UNL1        0.0453
     25 C          60.9718   93.0602    2.0050 C.ar    1  UNL1        0.0409
     26 C          61.8597   93.2282    0.8079 C.ar    1  UNL1        0.0238
     27 C          62.1195   94.5973    0.2530 C.ar    1  UNL1        0.0991
     28 N          61.4913   95.7985    0.8954 N.ar    1  UNL1       -0.2391
     29 C          60.6033   95.6305    2.0925 C.ar    1  UNL1        0.1362
     30 C          60.3436   94.2613    2.6474 C.ar    1  UNL1        0.1646
     31 O          59.5192   93.7884    3.8079 O.2     1  UNL1       -0.4473
@<TRIPOS>BOND
     1    16    17    1
     2    17    15    1
     3    15    10    1
     4    10    11   ar
     5    11    12   ar
     6    12     7    1
     7     7     8    2
     8     7     9    2
     9     7     1    1
    10     1     2   ar
    11     2     3   ar
    12     3     4   ar
    13     4    18    1
    14    18    19    1
    15    19    20   am
    16    20    21    2
    17    20    23    1
    18    23    24   ar
    19    24    25   ar
    20    25    26   ar
    21    26    27   ar
    22    27    28   ar
    23    28    29   ar
    24    29    30   ar
    25    30    31   ar
    26     4     5   ar
    27     5     6   ar
    28    12    13   ar
    29    13    14   ar
    30    14    10   ar
    31     6     1   ar
    32    31    23   ar
    33    30    25   ar
    34    19    22    1
