@<TRIPOS>MOLECULE
*****
 33 38 0 0 0
SMALL
GASTEIGER

@<TRIPOS>ATOM
      1 C          63.3596   89.7288   12.8572 C.ar    1  UNL1        0.0198
      2 C          63.1163   89.5200   14.3224 C.ar    1  UNL1        0.0146
      3 C          63.7738   90.4187   15.3275 C.ar    1  UNL1        0.0786
      4 CL         63.5304   90.2097   16.7929 Cl      1  UNL1       -0.0806
      5 C          64.6746   91.5262   14.8672 C.ar    1  UNL1        0.1326
      6 N          65.4550   92.5632   15.6192 N.ar    1  UNL1       -0.1276
      7 N          66.1807   93.4130   14.6186 N.ar    1  UNL1       -0.0598
      8 N          65.8488   92.9012   13.2482 N.ar    1  UNL1       -0.2141
      9 C          64.9179   91.7350   13.4019 C.ar    1  UNL1        0.1043
     10 C          64.2604   90.8364   12.3969 C.ar    1  UNL1        0.0223
     11 C          66.3583   93.4578   11.9518 C.2     1  UNL1        0.0681
     12 C          67.0410   92.5571   10.9657 C.2     1  UNL1        0.0153
     13 C          67.5506   93.1136    9.6692 C.2     1  UNL1        0.0041
     14 C          67.3773   94.5709    9.3590 C.2     1  UNL1        0.0367
     15 C          67.7729   95.3984    8.1720 C.2     1  UNL1        0.1233
     16 N          67.3346   96.8105    8.4246 N.2     1  UNL1       -0.1467
     17 N          66.6681   96.8558    9.7678 N.2     1  UNL1       -0.1519
     18 C          66.6945   95.4716   10.3452 C.2     1  UNL1        0.0880
     19 C          66.1850   94.9151   11.6416 C.3     1  UNL1        0.0934
     20 N          62.7728   87.3320   11.8295 N.ar    1  UNL1       -0.2464
     21 N          61.9729   86.8479   10.6565 N.ar    1  UNL1       -0.1674
     22 C          61.4079   88.0469    9.9542 C.ar    1  UNL1        0.1217
     23 C          61.8586   89.2720   10.6930 C.ar    1  UNL1        0.0412
     24 C          62.7021   88.8302   11.8520 C.ar    1  UNL1        0.0799
     25 C          63.5132   86.4694   12.8081 C.3     1  UNL1        0.1538
     26 C          62.5901   82.0736   13.0807 C.ar    1  UNL1        0.0684
     27 C          62.4454   82.9469   14.2917 C.ar    1  UNL1        0.0100
     28 C          62.7532   84.4122   14.2009 C.ar    1  UNL1       -0.0016
     29 C          63.2055   85.0041   12.8989 C.ar    1  UNL1        0.0021
     30 C          63.3501   84.1309   11.6879 C.ar    1  UNL1       -0.0016
     31 C          63.0424   82.6656   11.7788 C.ar    1  UNL1        0.0100
     32 N          61.9747   79.1430   13.2625 N.1     1  UNL1       -0.1908
     33 C          62.2823   80.6083   13.1716 C.1     1  UNL1        0.1004
@<TRIPOS>BOND
     1    32    33    3
     2    33    26    1
     3    26    27   ar
     4    27    28   ar
     5    28    29   ar
     6    29    25    1
     7    25    20    1
     8    20    21   ar
     9    21    22   ar
    10    22    23   ar
    11    23    24   ar
    12    24     1    1
    13     1     2   ar
    14     2     3   ar
    15     3     4    1
    16     3     5   ar
    17     5     6   ar
    18     6     7   ar
    19     7     8   ar
    20     8    11    1
    21    11    12    2
    22    12    13    1
    23    13    14    2
    24    14    15    1
    25    15    16    2
    26    16    17    1
    27    17    18    2
    28    18    19    1
    29     8     9   ar
    30     9    10   ar
    31    29    30   ar
    32    30    31   ar
    33    31    26   ar
    34    24    20   ar
    35    10     1   ar
    36     9     5   ar
    37    19    11    1
    38    18    14    1
@<TRIPOS>MOLECULE
*****
 33 38 0 0 0
SMALL
GASTEIGER

@<TRIPOS>ATOM
      1 C          63.9550   89.4429   14.6551 C.ar    1  UNL1        0.0198
      2 C          64.9468   90.5273   14.9554 C.ar    1  UNL1        0.0146
      3 C          65.2727   91.5554   13.9128 C.ar    1  UNL1        0.0786
      4 CL         66.2647   92.6398   14.2131 Cl      1  UNL1       -0.0806
      5 C          64.6066   91.4990   12.5700 C.ar    1  UNL1        0.1326
      6 N          64.7264   92.3677   11.3530 N.ar    1  UNL1       -0.1276
      7 N          63.8084   91.8202   10.3006 N.ar    1  UNL1       -0.0598
      8 N          63.1213   90.6131   10.8672 N.ar    1  UNL1       -0.2141
      9 C          63.6147   90.4146   12.2698 C.ar    1  UNL1        0.1043
     10 C          63.2889   89.3866   13.3123 C.ar    1  UNL1        0.0223
     11 C          62.1173   89.7552   10.1560 C.2     1  UNL1        0.0681
     12 C          60.7619   90.3054    9.8240 C.2     1  UNL1        0.0153
     13 C          59.7577   89.4475    9.1128 C.2     1  UNL1        0.0041
     14 C          60.1090   88.0394    8.7337 C.2     1  UNL1        0.0367
     15 C          59.3317   86.9651    8.0323 C.2     1  UNL1        0.1233
     16 N          60.2066   85.7510    7.9309 N.2     1  UNL1       -0.1467
     17 N          61.5248   86.0749    8.5696 N.2     1  UNL1       -0.1519
     18 C          61.4644   87.4892    9.0657 C.2     1  UNL1        0.0880
     19 C          62.4685   88.3470    9.7768 C.3     1  UNL1        0.0934
     20 N          63.9504   86.9515   15.6237 N.ar    1  UNL1       -0.2464
     21 N          63.4445   86.3019   16.8776 N.ar    1  UNL1       -0.1674
     22 C          62.8105   87.3638   17.7264 C.ar    1  UNL1        0.1217
     23 C          62.9246   88.6696   16.9972 C.ar    1  UNL1        0.0412
     24 C          63.6291   88.4148   15.6977 C.ar    1  UNL1        0.0799
     25 C          64.6540   86.2593   14.4942 C.3     1  UNL1        0.1538
     26 C          63.2818   82.1920   13.1439 C.ar    1  UNL1        0.0684
     27 C          63.0393   83.3915   12.2764 C.ar    1  UNL1        0.0100
     28 C          63.4967   84.7473   12.7265 C.ar    1  UNL1       -0.0016
     29 C          64.1966   84.9035   14.0441 C.ar    1  UNL1        0.0021
     30 C          64.4390   83.7040   14.9114 C.ar    1  UNL1       -0.0016
     31 C          63.9816   82.3482   14.4613 C.ar    1  UNL1        0.0100
     32 N          62.3669   79.4805   12.2435 N.1     1  UNL1       -0.1908
     33 C          62.8244   80.8362   12.6937 C.1     1  UNL1        0.1004
@<TRIPOS>BOND
     1    32    33    3
     2    33    26    1
     3    26    27   ar
     4    27    28   ar
     5    28    29   ar
     6    29    25    1
     7    25    20    1
     8    20    21   ar
     9    21    22   ar
    10    22    23   ar
    11    23    24   ar
    12    24     1    1
    13     1     2   ar
    14     2     3   ar
    15     3     4    1
    16     3     5   ar
    17     5     6   ar
    18     6     7   ar
    19     7     8   ar
    20     8    11    1
    21    11    12    2
    22    12    13    1
    23    13    14    2
    24    14    15    1
    25    15    16    2
    26    16    17    1
    27    17    18    2
    28    18    19    1
    29     8     9   ar
    30     9    10   ar
    31    29    30   ar
    32    30    31   ar
    33    31    26   ar
    34    24    20   ar
    35    10     1   ar
    36     9     5   ar
    37    19    11    1
    38    18    14    1
@<TRIPOS>MOLECULE
*****
 33 38 0 0 0
SMALL
GASTEIGER

@<TRIPOS>ATOM
      1 C          63.8456   86.4585   14.9204 C.ar    1  UNL1        0.0198
      2 C          63.3360   86.3042   16.3226 C.ar    1  UNL1        0.0146
      3 C          63.0544   87.5191   17.1562 C.ar    1  UNL1        0.0786
      4 CL         62.5447   87.3648   18.5586 Cl      1  UNL1       -0.0806
      5 C          63.2825   88.8882   16.5875 C.ar    1  UNL1        0.1326
      6 N          63.0956   90.2594   17.1662 N.ar    1  UNL1       -0.1276
      7 N          63.4897   91.2611   16.1216 N.ar    1  UNL1       -0.0598
      8 N          63.9202   90.5090   14.8972 N.ar    1  UNL1       -0.2141
      9 C          63.7921   89.0425   15.1851 C.ar    1  UNL1        0.1043
     10 C          64.0736   87.8276   14.3516 C.ar    1  UNL1        0.0223
     11 C          64.3953   91.1167   13.6108 C.2     1  UNL1        0.0681
     12 C          63.6374   90.8705   12.3400 C.2     1  UNL1        0.0153
     13 C          64.1125   91.4783   11.0535 C.2     1  UNL1        0.0041
     14 C          65.3455   92.3322   11.0379 C.2     1  UNL1        0.0367
     15 C          66.0493   93.0588    9.9302 C.2     1  UNL1        0.1233
     16 N          67.2422   93.7540   10.5164 N.2     1  UNL1       -0.1467
     17 N          67.2757   93.4571   11.9864 N.2     1  UNL1       -0.1519
     18 C          66.1035   92.5784   12.3087 C.2     1  UNL1        0.0880
     19 C          65.6284   91.9707   13.5951 C.3     1  UNL1        0.0934
     20 N          63.6013   84.9799   12.7069 N.ar    1  UNL1       -0.2464
     21 N          64.1333   83.6525   12.2540 N.ar    1  UNL1       -0.1674
     22 C          64.9878   83.0958   13.3540 C.ar    1  UNL1        0.1217
     23 C          64.9840   84.0792   14.4867 C.ar    1  UNL1        0.0412
     24 C          64.1271   85.2436   14.0867 C.ar    1  UNL1        0.0799
     25 C          62.7016   85.8847   11.9183 C.3     1  UNL1        0.1538
     26 C          61.8766   85.0145    7.5811 C.ar    1  UNL1        0.0684
     27 C          63.0969   84.4444    8.2415 C.ar    1  UNL1        0.0100
     28 C          63.3719   84.7345    9.6873 C.ar    1  UNL1       -0.0016
     29 C          62.4266   85.5946   10.4726 C.ar    1  UNL1        0.0021
     30 C          61.2064   86.1647    9.8122 C.ar    1  UNL1       -0.0016
     31 C          60.9314   85.8746    8.3664 C.ar    1  UNL1        0.0100
     32 N          61.3266   84.4341    4.6896 N.1     1  UNL1       -0.1908
     33 C          61.6016   84.7243    6.1353 C.1     1  UNL1        0.1004
@<TRIPOS>BOND
     1    32    33    3
     2    33    26    1
     3    26    27   ar
     4    27    28   ar
     5    28    29   ar
     6    29    25    1
     7    25    20    1
     8    20    21   ar
     9    21    22   ar
    10    22    23   ar
    11    23    24   ar
    12    24     1    1
    13     1     2   ar
    14     2     3   ar
    15     3     4    1
    16     3     5   ar
    17     5     6   ar
    18     6     7   ar
    19     7     8   ar
    20     8    11    1
    21    11    12    2
    22    12    13    1
    23    13    14    2
    24    14    15    1
    25    15    16    2
    26    16    17    1
    27    17    18    2
    28    18    19    1
    29     8     9   ar
    30     9    10   ar
    31    29    30   ar
    32    30    31   ar
    33    31    26   ar
    34    24    20   ar
    35    10     1   ar
    36     9     5   ar
    37    19    11    1
    38    18    14    1
@<TRIPOS>MOLECULE
*****
 33 38 0 0 0
SMALL
GASTEIGER

@<TRIPOS>ATOM
      1 C          62.4616   89.9510   10.4860 C.ar    1  UNL1        0.0198
      2 C          63.1378   91.1529    9.8962 C.ar    1  UNL1        0.0146
      3 C          64.1566   91.9086   10.6968 C.ar    1  UNL1        0.0786
      4 CL         64.8329   93.1107   10.1069 Cl      1  UNL1       -0.0806
      5 C          64.4992   91.4622   12.0872 C.ar    1  UNL1        0.1326
      6 N          65.4558   92.0035   13.1080 N.ar    1  UNL1       -0.1276
      7 N          65.3707   91.1360   14.3288 N.ar    1  UNL1       -0.0598
      8 N          64.3616   90.0586   14.0624 N.ar    1  UNL1       -0.2141
      9 C          63.8230   90.2602   12.6770 C.ar    1  UNL1        0.1043
     10 C          62.8042   89.5046   11.8764 C.ar    1  UNL1        0.0223
     11 C          63.9614   88.9706   15.0143 C.2     1  UNL1        0.0681
     12 C          63.3108   89.3185   16.3203 C.2     1  UNL1        0.0153
     13 C          62.9106   88.2305   17.2723 C.2     1  UNL1        0.0041
     14 C          63.1609   86.7947   16.9182 C.2     1  UNL1        0.0367
     15 C          62.8776   85.5163   17.6500 C.2     1  UNL1        0.1233
     16 N          63.3531   84.3783   16.7963 N.2     1  UNL1       -0.1467
     17 N          63.9303   84.9533   15.5368 N.2     1  UNL1       -0.1519
     18 C          63.8115   86.4467   15.6121 C.2     1  UNL1        0.0880
     19 C          64.2118   87.5346   14.6602 C.3     1  UNL1        0.0934
     20 N          61.6080   87.8125    9.1283 N.ar    1  UNL1       -0.2464
     21 N          60.3470   87.4524    8.3999 N.ar    1  UNL1       -0.1674
     22 C          59.4025   88.6127    8.5069 C.ar    1  UNL1        0.1217
     23 C          60.0796   89.6899    9.3013 C.ar    1  UNL1        0.0412
     24 C          61.4427   89.1953    9.6854 C.ar    1  UNL1        0.0799
     25 C          62.8212   86.9424    9.2739 C.3     1  UNL1        0.1538
     26 C          62.7880   83.5028   12.1752 C.ar    1  UNL1        0.0684
     27 C          63.3303   83.3103   10.7899 C.ar    1  UNL1        0.0100
     28 C          63.3414   84.4569    9.8228 C.ar    1  UNL1       -0.0016
     29 C          62.8101   85.7958   10.2410 C.ar    1  UNL1        0.0021
     30 C          62.2678   85.9883   11.6263 C.ar    1  UNL1       -0.0016
     31 C          62.2568   84.8417   12.5934 C.ar    1  UNL1        0.0100
     32 N          62.7660   81.2094   14.1092 N.1     1  UNL1       -0.1908
     33 C          62.7770   82.3561   13.1422 C.1     1  UNL1        0.1004
@<TRIPOS>BOND
     1    32    33    3
     2    33    26    1
     3    26    27   ar
     4    27    28   ar
     5    28    29   ar
     6    29    25    1
     7    25    20    1
     8    20    21   ar
     9    21    22   ar
    10    22    23   ar
    11    23    24   ar
    12    24     1    1
    13     1     2   ar
    14     2     3   ar
    15     3     4    1
    16     3     5   ar
    17     5     6   ar
    18     6     7   ar
    19     7     8   ar
    20     8    11    1
    21    11    12    2
    22    12    13    1
    23    13    14    2
    24    14    15    1
    25    15    16    2
    26    16    17    1
    27    17    18    2
    28    18    19    1
    29     8     9   ar
    30     9    10   ar
    31    29    30   ar
    32    30    31   ar
    33    31    26   ar
    34    24    20   ar
    35    10     1   ar
    36     9     5   ar
    37    19    11    1
    38    18    14    1
@<TRIPOS>MOLECULE
*****
 33 38 0 0 0
SMALL
GASTEIGER

@<TRIPOS>ATOM
      1 C          63.9412   90.4242   13.1329 C.ar    1  UNL1        0.0198
      2 C          63.5245   91.2554   11.9560 C.ar    1  UNL1        0.0146
      3 C          62.8937   90.6022   10.7620 C.ar    1  UNL1        0.0786
      4 CL         62.4771   91.4336    9.5850 Cl      1  UNL1       -0.0806
      5 C          62.6797   89.1177   10.7451 C.ar    1  UNL1        0.1326
      6 N          62.0870   88.2007    9.7166 N.ar    1  UNL1       -0.1276
      7 N          62.1374   86.8027   10.2579 N.ar    1  UNL1       -0.0598
      8 N          62.7612   86.8556   11.6210 N.ar    1  UNL1       -0.2141
      9 C          63.0963   88.2864   11.9222 C.ar    1  UNL1        0.1043
     10 C          63.7271   88.9396   13.1161 C.ar    1  UNL1        0.0223
     11 C          63.0067   85.6836   12.5244 C.2     1  UNL1        0.0681
     12 C          63.7718   85.8682   13.8013 C.2     1  UNL1        0.0153
     13 C          64.0174   84.6962   14.7047 C.2     1  UNL1        0.0041
     14 C          63.4978   83.3396   14.3311 C.2     1  UNL1        0.0367
     15 C          63.5838   82.0081   15.0166 C.2     1  UNL1        0.1233
     16 N          62.8718   81.0006   14.1634 N.2     1  UNL1       -0.1467
     17 N          62.3458   81.7094   12.9505 N.2     1  UNL1       -0.1519
     18 C          62.7327   83.1550   13.0541 C.2     1  UNL1        0.0880
     19 C          62.4871   84.3269   12.1508 C.3     1  UNL1        0.0934
     20 N          65.9613   91.6389   14.3934 N.ar    1  UNL1       -0.2464
     21 N          66.1721   92.1923   15.7716 N.ar    1  UNL1       -0.1674
     22 C          64.9130   91.9728   16.5568 C.ar    1  UNL1        0.1217
     23 C          63.9241   91.2837   15.6640 C.ar    1  UNL1        0.0412
     24 C          64.5720   91.0774   14.3269 C.ar    1  UNL1        0.0799
     25 C          66.9638   91.6458   13.2777 C.3     1  UNL1        0.1538
     26 C          66.7170   94.7719   10.0504 C.ar    1  UNL1        0.0684
     27 C          67.3564   93.4458    9.7627 C.ar    1  UNL1        0.0100
     28 C          67.4387   92.4037   10.8385 C.ar    1  UNL1       -0.0016
     29 C          66.8816   92.6879   12.2019 C.ar    1  UNL1        0.0021
     30 C          66.2422   94.0139   12.4895 C.ar    1  UNL1       -0.0016
     31 C          66.1599   95.0560   11.4137 C.ar    1  UNL1        0.0100
     32 N          66.5525   96.8560    7.8986 N.1     1  UNL1       -0.1908
     33 C          66.6348   95.8139    8.9745 C.1     1  UNL1        0.1004
@<TRIPOS>BOND
     1    32    33    3
     2    33    26    1
     3    26    27   ar
     4    27    28   ar
     5    28    29   ar
     6    29    25    1
     7    25    20    1
     8    20    21   ar
     9    21    22   ar
    10    22    23   ar
    11    23    24   ar
    12    24     1    1
    13     1     2   ar
    14     2     3   ar
    15     3     4    1
    16     3     5   ar
    17     5     6   ar
    18     6     7   ar
    19     7     8   ar
    20     8    11    1
    21    11    12    2
    22    12    13    1
    23    13    14    2
    24    14    15    1
    25    15    16    2
    26    16    17    1
    27    17    18    2
    28    18    19    1
    29     8     9   ar
    30     9    10   ar
    31    29    30   ar
    32    30    31   ar
    33    31    26   ar
    34    24    20   ar
    35    10     1   ar
    36     9     5   ar
    37    19    11    1
    38    18    14    1
@<TRIPOS>MOLECULE
*****
 33 38 0 0 0
SMALL
GASTEIGER

@<TRIPOS>ATOM
      1 C          62.1258   85.6604   10.9806 C.ar    1  UNL1        0.0198
      2 C          62.5103   84.2298   10.7452 C.ar    1  UNL1        0.0146
      3 C          63.4027   83.5226   11.7217 C.ar    1  UNL1        0.0786
      4 CL         63.7873   82.0919   11.4863 Cl      1  UNL1       -0.0806
      5 C          63.9105   84.2461   12.9336 C.ar    1  UNL1        0.1326
      6 N          64.7982   83.8129   14.0625 N.ar    1  UNL1       -0.1276
      7 N          64.9622   84.9759   14.9956 N.ar    1  UNL1       -0.0598
      8 N          64.1759   86.1277   14.4434 N.ar    1  UNL1       -0.2141
      9 C          63.5259   85.6767   13.1690 C.ar    1  UNL1        0.1043
     10 C          62.6336   86.3839   12.1925 C.ar    1  UNL1        0.0223
     11 C          64.0600   87.4912   15.0577 C.2     1  UNL1        0.0681
     12 C          63.1101   87.7230   16.1953 C.2     1  UNL1        0.0153
     13 C          62.9942   89.0865   16.8097 C.2     1  UNL1        0.0041
     14 C          63.8281   90.2182   16.2865 C.2     1  UNL1        0.0367
     15 C          63.9288   91.6600   16.6881 C.2     1  UNL1        0.1233
     16 N          64.9409   92.3193   15.7987 N.2     1  UNL1       -0.1467
     17 N          65.4657   91.2849   14.8475 N.2     1  UNL1       -0.1519
     18 C          64.7780   89.9864   15.1489 C.2     1  UNL1        0.0880
     19 C          64.8940   88.6230   14.5345 C.3     1  UNL1        0.0934
     20 N          60.6827   87.7544   10.1573 N.ar    1  UNL1       -0.2464
     21 N          59.8440   88.0560    8.9508 N.ar    1  UNL1       -0.1674
     22 C          59.8763   86.8556    8.0520 C.ar    1  UNL1        0.1217
     23 C          60.7349   85.8121    8.7029 C.ar    1  UNL1        0.0412
     24 C          61.2333   86.3676   10.0041 C.ar    1  UNL1        0.0799
     25 C          60.9277   88.6776   11.3139 C.3     1  UNL1        0.1538
     26 C          64.0999   91.8559   11.0230 C.ar    1  UNL1        0.0684
     27 C          63.4056   91.3737    9.7839 C.ar    1  UNL1        0.0100
     28 C          62.3481   90.3142    9.8808 C.ar    1  UNL1       -0.0016
     29 C          61.9852   89.7370   11.2169 C.ar    1  UNL1        0.0021
     30 C          62.6795   90.2193   12.4560 C.ar    1  UNL1       -0.0016
     31 C          63.7369   91.2788   12.3590 C.ar    1  UNL1        0.0100
     32 N          66.2147   93.9750   10.8289 N.1     1  UNL1       -0.1908
     33 C          65.1573   92.9154   10.9260 C.1     1  UNL1        0.1004
@<TRIPOS>BOND
     1    32    33    3
     2    33    26    1
     3    26    27   ar
     4    27    28   ar
     5    28    29   ar
     6    29    25    1
     7    25    20    1
     8    20    21   ar
     9    21    22   ar
    10    22    23   ar
    11    23    24   ar
    12    24     1    1
    13     1     2   ar
    14     2     3   ar
    15     3     4    1
    16     3     5   ar
    17     5     6   ar
    18     6     7   ar
    19     7     8   ar
    20     8    11    1
    21    11    12    2
    22    12    13    1
    23    13    14    2
    24    14    15    1
    25    15    16    2
    26    16    17    1
    27    17    18    2
    28    18    19    1
    29     8     9   ar
    30     9    10   ar
    31    29    30   ar
    32    30    31   ar
    33    31    26   ar
    34    24    20   ar
    35    10     1   ar
    36     9     5   ar
    37    19    11    1
    38    18    14    1
@<TRIPOS>MOLECULE
*****
 33 38 0 0 0
SMALL
GASTEIGER

@<TRIPOS>ATOM
      1 C          63.4574   89.7279   13.3585 C.ar    1  UNL1        0.0198
      2 C          63.5368   90.5439   14.6145 C.ar    1  UNL1        0.0146
      3 C          63.5502   89.8636   15.9514 C.ar    1  UNL1        0.0786
      4 CL         63.6296   90.6797   17.2075 Cl      1  UNL1       -0.0806
      5 C          63.4842   88.3673   16.0320 C.ar    1  UNL1        0.1326
      6 N          63.4799   87.4242   17.1985 N.ar    1  UNL1       -0.1276
      7 N          63.3979   86.0254   16.6633 N.ar    1  UNL1       -0.0598
      8 N          63.3515   86.1038   15.1661 N.ar    1  UNL1       -0.2141
      9 C          63.4049   87.5512   14.7759 C.ar    1  UNL1        0.1043
     10 C          63.3915   88.2316   13.4391 C.ar    1  UNL1        0.0223
     11 C          63.2666   84.9394   14.2244 C.2     1  UNL1        0.0681
     12 C          63.3789   85.1614   12.7452 C.2     1  UNL1        0.0153
     13 C          63.2940   83.9969   11.8034 C.2     1  UNL1        0.0041
     14 C          63.0969   82.6105   12.3409 C.2     1  UNL1        0.0367
     15 C          62.9767   81.2783   11.6618 C.2     1  UNL1        0.1233
     16 N          62.7902   80.2331   12.7214 N.2     1  UNL1       -0.1467
     17 N          62.7951   80.9192   14.0553 N.2     1  UNL1       -0.1519
     18 C          62.9846   82.3885   13.8202 C.2     1  UNL1        0.0880
     19 C          63.0695   83.5529   14.7619 C.3     1  UNL1        0.0934
     20 N          62.4870   90.1304   10.9005 N.ar    1  UNL1       -0.2464
     21 N          62.8369   91.0363    9.7573 N.ar    1  UNL1       -0.1674
     22 C          64.0100   91.8740   10.1718 C.ar    1  UNL1        0.1217
     23 C          64.3853   91.4858   11.5713 C.ar    1  UNL1        0.0412
     24 C          63.4440   90.4082   12.0216 C.ar    1  UNL1        0.0799
     25 C          61.3754   89.1235   10.9193 C.3     1  UNL1        0.1538
     26 C          61.1781   85.9304    7.7547 C.ar    1  UNL1        0.0684
     27 C          60.0552   86.9147    7.8980 C.ar    1  UNL1        0.0100
     28 C          60.1210   87.9791    8.9529 C.ar    1  UNL1       -0.0016
     29 C          61.3096   88.0591    9.8644 C.ar    1  UNL1        0.0021
     30 C          62.4324   87.0748    9.7211 C.ar    1  UNL1       -0.0016
     31 C          62.3666   86.0104    8.6662 C.ar    1  UNL1        0.0100
     32 N          61.0465   83.8017    5.6448 N.1     1  UNL1       -0.1908
     33 C          61.1122   84.8661    6.6998 C.1     1  UNL1        0.1004
@<TRIPOS>BOND
     1    32    33    3
     2    33    26    1
     3    26    27   ar
     4    27    28   ar
     5    28    29   ar
     6    29    25    1
     7    25    20    1
     8    20    21   ar
     9    21    22   ar
    10    22    23   ar
    11    23    24   ar
    12    24     1    1
    13     1     2   ar
    14     2     3   ar
    15     3     4    1
    16     3     5   ar
    17     5     6   ar
    18     6     7   ar
    19     7     8   ar
    20     8    11    1
    21    11    12    2
    22    12    13    1
    23    13    14    2
    24    14    15    1
    25    15    16    2
    26    16    17    1
    27    17    18    2
    28    18    19    1
    29     8     9   ar
    30     9    10   ar
    31    29    30   ar
    32    30    31   ar
    33    31    26   ar
    34    24    20   ar
    35    10     1   ar
    36     9     5   ar
    37    19    11    1
    38    18    14    1
@<TRIPOS>MOLECULE
*****
 33 38 0 0 0
SMALL
GASTEIGER

@<TRIPOS>ATOM
      1 C          62.6692   90.3665   12.1888 C.ar    1  UNL1        0.0198
      2 C          61.4366   91.2176   12.1124 C.ar    1  UNL1        0.0146
      3 C          60.1801   90.6654   11.5070 C.ar    1  UNL1        0.0786
      4 CL         58.9474   91.5167   11.4306 Cl      1  UNL1       -0.0806
      5 C          60.1564   89.2620   10.9781 C.ar    1  UNL1        0.1326
      6 N          59.0726   88.4512   10.3317 N.ar    1  UNL1       -0.1276
      7 N          59.6355   87.0988   10.0086 N.ar    1  UNL1       -0.0598
      8 N          61.0672   87.0739   10.4553 N.ar    1  UNL1       -0.2141
      9 C          61.3892   88.4108   11.0545 C.ar    1  UNL1        0.1043
     10 C          62.6456   88.9630   11.6599 C.ar    1  UNL1        0.0223
     11 C          62.0112   85.9154   10.3256 C.2     1  UNL1        0.0681
     12 C          62.6400   85.6052    8.9996 C.2     1  UNL1        0.0153
     13 C          63.5841   84.4467    8.8699 C.2     1  UNL1        0.0041
     14 C          63.8992   83.5984   10.0661 C.2     1  UNL1        0.0367
     15 C          64.7849   82.4006   10.2421 C.2     1  UNL1        0.1233
     16 N          64.7034   81.9706   11.6768 N.2     1  UNL1       -0.1467
     17 N          63.7673   82.9026   12.3876 N.2     1  UNL1       -0.1519
     18 C          63.2703   83.9087   11.3922 C.2     1  UNL1        0.0880
     19 C          62.3263   85.0671   11.5220 C.3     1  UNL1        0.0934
     20 N          64.3609   90.7596   14.2208 N.ar    1  UNL1       -0.2464
     21 N          65.6718   91.4696   14.3874 N.ar    1  UNL1       -0.1674
     22 C          66.0467   92.0674   13.0637 C.ar    1  UNL1        0.1217
     23 C          64.9676   91.7270   12.0791 C.ar    1  UNL1        0.0412
     24 C          63.9257   90.9187   12.7941 C.ar    1  UNL1        0.0799
     25 C          63.6161   90.0204   15.2926 C.3     1  UNL1        0.1538
     26 C          63.8554   85.5321   15.5121 C.ar    1  UNL1        0.0684
     27 C          64.3929   86.2540   14.3120 C.ar    1  UNL1        0.0100
     28 C          64.3131   87.7502   14.2389 C.ar    1  UNL1       -0.0016
     29 C          63.6959   88.5242   15.3657 C.ar    1  UNL1        0.0021
     30 C          63.1585   87.8023   16.5657 C.ar    1  UNL1       -0.0016
     31 C          63.2382   86.3062   16.6389 C.ar    1  UNL1        0.0100
     32 N          64.0151   82.5399   15.6584 N.1     1  UNL1       -0.1908
     33 C          63.9352   84.0360   15.5852 C.1     1  UNL1        0.1004
@<TRIPOS>BOND
     1    32    33    3
     2    33    26    1
     3    26    27   ar
     4    27    28   ar
     5    28    29   ar
     6    29    25    1
     7    25    20    1
     8    20    21   ar
     9    21    22   ar
    10    22    23   ar
    11    23    24   ar
    12    24     1    1
    13     1     2   ar
    14     2     3   ar
    15     3     4    1
    16     3     5   ar
    17     5     6   ar
    18     6     7   ar
    19     7     8   ar
    20     8    11    1
    21    11    12    2
    22    12    13    1
    23    13    14    2
    24    14    15    1
    25    15    16    2
    26    16    17    1
    27    17    18    2
    28    18    19    1
    29     8     9   ar
    30     9    10   ar
    31    29    30   ar
    32    30    31   ar
    33    31    26   ar
    34    24    20   ar
    35    10     1   ar
    36     9     5   ar
    37    19    11    1
    38    18    14    1
@<TRIPOS>MOLECULE
*****
 33 38 0 0 0
SMALL
GASTEIGER

@<TRIPOS>ATOM
      1 C          63.7645   87.4555   14.3152 C.ar    1  UNL1        0.0198
      2 C          64.5147   86.3594   15.0119 C.ar    1  UNL1        0.0146
      3 C          64.6008   84.9969   14.3903 C.ar    1  UNL1        0.0786
      4 CL         65.3512   83.9007   15.0870 Cl      1  UNL1       -0.0806
      5 C          63.9366   84.7307   13.0720 C.ar    1  UNL1        0.1326
      6 N          63.8510   83.4976   12.2221 N.ar    1  UNL1       -0.1276
      7 N          63.0478   83.8318   11.0002 N.ar    1  UNL1       -0.0598
      8 N          62.6370   85.2714   11.0948 N.ar    1  UNL1       -0.2141
      9 C          63.1863   85.8269   12.3753 C.ar    1  UNL1        0.1043
     10 C          63.1002   87.1893   12.9969 C.ar    1  UNL1        0.0223
     11 C          61.8202   86.0233   10.0861 C.2     1  UNL1        0.0681
     12 C          61.3585   85.3383    8.8341 C.2     1  UNL1        0.0153
     13 C          60.5417   86.0902    7.8253 C.2     1  UNL1        0.0041
     14 C          60.1868   87.5271    8.0686 C.2     1  UNL1        0.0367
     15 C          59.4007   88.5174    7.2614 C.2     1  UNL1        0.1233
     16 N          59.3766   89.8143    8.0145 N.2     1  UNL1       -0.1467
     17 N          60.1479   89.6257    9.2872 N.2     1  UNL1       -0.1519
     18 C          60.6486   88.2121    9.3207 C.2     1  UNL1        0.0880
     19 C          61.4653   87.4603   10.3294 C.3     1  UNL1        0.0934
     20 N          63.8104   90.1263   14.2151 N.ar    1  UNL1       -0.2464
     21 N          63.6587   91.2282   15.2216 N.ar    1  UNL1       -0.1674
     22 C          63.4329   90.6008   16.5652 C.ar    1  UNL1        0.1217
     23 C          63.4450   89.1113   16.3892 C.ar    1  UNL1        0.0412
     24 C          63.6783   88.8180   14.9368 C.ar    1  UNL1        0.0799
     25 C          64.0517   90.3019   12.7451 C.3     1  UNL1        0.1538
     26 C          65.9902   94.0645   11.2170 C.ar    1  UNL1        0.0684
     27 C          65.1029   93.2584   10.3152 C.ar    1  UNL1        0.0100
     28 C          64.4568   92.0042   10.8246 C.ar    1  UNL1       -0.0016
     29 C          64.6979   91.5561   12.2357 C.ar    1  UNL1        0.0021
     30 C          65.5851   92.3622   13.1374 C.ar    1  UNL1       -0.0016
     31 C          66.2313   93.6165   12.6280 C.ar    1  UNL1        0.0100
     32 N          67.2824   96.5728   10.1980 N.1     1  UNL1       -0.1908
     33 C          66.6363   95.3187   10.7075 C.1     1  UNL1        0.1004
@<TRIPOS>BOND
     1    32    33    3
     2    33    26    1
     3    26    27   ar
     4    27    28   ar
     5    28    29   ar
     6    29    25    1
     7    25    20    1
     8    20    21   ar
     9    21    22   ar
    10    22    23   ar
    11    23    24   ar
    12    24     1    1
    13     1     2   ar
    14     2     3   ar
    15     3     4    1
    16     3     5   ar
    17     5     6   ar
    18     6     7   ar
    19     7     8   ar
    20     8    11    1
    21    11    12    2
    22    12    13    1
    23    13    14    2
    24    14    15    1
    25    15    16    2
    26    16    17    1
    27    17    18    2
    28    18    19    1
    29     8     9   ar
    30     9    10   ar
    31    29    30   ar
    32    30    31   ar
    33    31    26   ar
    34    24    20   ar
    35    10     1   ar
    36     9     5   ar
    37    19    11    1
    38    18    14    1
