@<TRIPOS>MOLECULE
*****
 19 21 0 0 0
SMALL
GASTEIGER

@<TRIPOS>ATOM
      1 C          63.6510   85.6578   15.0352 C.ar    1  UNL1        0.0013
      2 C          63.0848   85.8057   16.4163 C.ar    1  UNL1       -0.0003
      3 C          62.9743   87.1655   17.0398 C.ar    1  UNL1       -0.0042
      4 C          63.4300   88.3773   16.2823 C.ar    1  UNL1       -0.0188
      5 C          63.9962   88.2293   14.9012 C.ar    1  UNL1       -0.0253
      6 C          64.1067   86.8696   14.2776 C.ar    1  UNL1       -0.0045
      7 C          64.4520   89.4411   14.1437 C.3     1  UNL1        0.0338
      8 C          64.3415   90.8009   14.7672 C.3     1  UNL1        0.0695
      9 C          63.7752   90.9488   16.1484 C.2     1  UNL1        0.1553
     10 O          63.6647   92.3086   16.7719 O.2     1  UNL1       -0.2957
     11 C          63.3195   89.7370   16.9059 C.3     1  UNL1        0.0904
     12 C          64.3191   82.8010   12.3627 C.ar    1  UNL1        0.1578
     13 C          63.9826   81.5785   13.1643 C.ar    1  UNL1        0.1356
     14 N          63.5355   81.7159   14.5895 N.ar    1  UNL1       -0.2391
     15 C          63.4250   83.0757   15.2131 C.ar    1  UNL1        0.0991
     16 C          63.7615   84.2980   14.4115 C.ar    1  UNL1        0.0222
     17 C          64.2086   84.1606   12.9863 C.ar    1  UNL1        0.0401
     18 C          64.0305   83.3857    9.8477 C.3     1  UNL1        0.2525
     19 O          64.7662   82.6636   10.9375 O.3     1  UNL1       -0.4699
@<TRIPOS>BOND
     1    18    19    1
     2    19    12    1
     3    12    13   ar
     4    13    14   ar
     5    14    15   ar
     6    15    16   ar
     7    16     1    1
     8     1     2   ar
     9     2     3   ar
    10     3     4   ar
    11     4     5   ar
    12     5     6   ar
    13     5     7    1
    14     7     8    1
    15     8     9    1
    16     9    10    2
    17     9    11    1
    18    16    17   ar
    19    17    12   ar
    20     6     1   ar
    21    11     4    1
@<TRIPOS>MOLECULE
*****
 19 21 0 0 0
SMALL
GASTEIGER

@<TRIPOS>ATOM
      1 C          64.2091   89.5134   14.2216 C.ar    1  UNL1        0.0013
      2 C          63.5942   89.6009   12.8562 C.ar    1  UNL1       -0.0003
      3 C          63.9161   90.7611   11.9617 C.ar    1  UNL1       -0.0042
      4 C          64.8529   91.8339   12.4325 C.ar    1  UNL1       -0.0188
      5 C          65.4677   91.7464   13.7978 C.ar    1  UNL1       -0.0253
      6 C          65.1459   90.5862   14.6924 C.ar    1  UNL1       -0.0045
      7 C          66.4045   92.8192   14.2686 C.3     1  UNL1        0.0338
      8 C          66.7264   93.9794   13.3741 C.3     1  UNL1        0.0695
      9 C          66.1115   94.0669   12.0087 C.2     1  UNL1        0.1553
     10 O          66.4333   95.2271   11.1141 O.2     1  UNL1       -0.2957
     11 C          65.1747   92.9941   11.5379 C.3     1  UNL1        0.0904
     12 C          63.9627   85.8034   15.6090 C.ar    1  UNL1        0.1578
     13 C          63.2436   86.0327   16.9054 C.ar    1  UNL1        0.1356
     14 N          62.8463   87.4222   17.3070 N.ar    1  UNL1       -0.2391
     15 C          63.1682   88.5825   16.4124 C.ar    1  UNL1        0.0991
     16 C          63.8873   88.3532   15.1162 C.ar    1  UNL1        0.0222
     17 C          64.2846   86.9636   14.7145 C.ar    1  UNL1        0.0401
     18 C          64.6321   84.0986   13.7662 C.3     1  UNL1        0.2525
     19 O          64.3600   84.4139   15.2073 O.3     1  UNL1       -0.4699
@<TRIPOS>BOND
     1    18    19    1
     2    19    12    1
     3    12    13   ar
     4    13    14   ar
     5    14    15   ar
     6    15    16   ar
     7    16     1    1
     8     1     2   ar
     9     2     3   ar
    10     3     4   ar
    11     4     5   ar
    12     5     6   ar
    13     5     7    1
    14     7     8    1
    15     8     9    1
    16     9    10    2
    17     9    11    1
    18    16    17   ar
    19    17    12   ar
    20     6     1   ar
    21    11     4    1
@<TRIPOS>MOLECULE
*****
 19 21 0 0 0
SMALL
GASTEIGER

@<TRIPOS>ATOM
      1 C          62.3388   86.1479   11.4762 C.ar    1  UNL1        0.0013
      2 C          62.6141   87.6102   11.6654 C.ar    1  UNL1       -0.0003
      3 C          61.9965   88.6156   10.7393 C.ar    1  UNL1       -0.0042
      4 C          61.1036   88.1587    9.6240 C.ar    1  UNL1       -0.0188
      5 C          60.8283   86.6964    9.4348 C.ar    1  UNL1       -0.0253
      6 C          61.4459   85.6910   10.3609 C.ar    1  UNL1       -0.0045
      7 C          59.9353   86.2394    8.3195 C.3     1  UNL1        0.0338
      8 C          59.3177   87.2448    7.3934 C.3     1  UNL1        0.0695
      9 C          59.5930   88.7072    7.5826 C.2     1  UNL1        0.1553
     10 O          58.9754   89.7126    6.6565 O.2     1  UNL1       -0.2957
     11 C          60.4859   89.1641    8.6979 C.3     1  UNL1        0.0904
     12 C          63.4495   82.6712   13.0348 C.ar    1  UNL1        0.1578
     13 C          64.1917   83.1315   14.2545 C.ar    1  UNL1        0.1356
     14 N          64.3162   84.5972   14.5480 N.ar    1  UNL1       -0.2391
     15 C          63.6985   85.6027   13.6219 C.ar    1  UNL1        0.0991
     16 C          62.9564   85.1424   12.4023 C.ar    1  UNL1        0.0222
     17 C          62.8319   83.6767   12.1088 C.ar    1  UNL1        0.0401
     18 C          62.2290   80.4035   13.3784 C.3     1  UNL1        0.2525
     19 O          63.3250   81.2055   12.7413 O.3     1  UNL1       -0.4699
@<TRIPOS>BOND
     1    18    19    1
     2    19    12    1
     3    12    13   ar
     4    13    14   ar
     5    14    15   ar
     6    15    16   ar
     7    16     1    1
     8     1     2   ar
     9     2     3   ar
    10     3     4   ar
    11     4     5   ar
    12     5     6   ar
    13     5     7    1
    14     7     8    1
    15     8     9    1
    16     9    10    2
    17     9    11    1
    18    16    17   ar
    19    17    12   ar
    20     6     1   ar
    21    11     4    1
@<TRIPOS>MOLECULE
*****
 19 21 0 0 0
SMALL
GASTEIGER

@<TRIPOS>ATOM
      1 C          63.2291   89.9308   11.9526 C.ar    1  UNL1        0.0013
      2 C          63.5347   89.2059   13.2297 C.ar    1  UNL1       -0.0003
      3 C          64.5169   89.7851   14.2042 C.ar    1  UNL1       -0.0042
      4 C          65.1935   91.0892   13.9016 C.ar    1  UNL1       -0.0188
      5 C          64.8880   91.8140   12.6245 C.ar    1  UNL1       -0.0253
      6 C          63.9057   91.2348   11.6499 C.ar    1  UNL1       -0.0045
      7 C          65.5646   93.1181   12.3218 C.3     1  UNL1        0.0338
      8 C          66.5468   93.6973   13.2963 C.3     1  UNL1        0.0695
      9 C          66.8525   92.9724   14.5736 C.2     1  UNL1        0.1553
     10 O          67.8347   93.5516   15.5481 O.2     1  UNL1       -0.2957
     11 C          66.1758   91.6683   14.8762 C.3     1  UNL1        0.0904
     12 C          61.4244   87.3586    9.5283 C.ar    1  UNL1        0.1578
     13 C          60.2824   88.1932    9.0289 C.ar    1  UNL1        0.1356
     14 N          60.1226   89.6069    9.5040 N.ar    1  UNL1       -0.2391
     15 C          61.1049   90.1861   10.4786 C.ar    1  UNL1        0.0991
     16 C          62.2468   89.3516   10.9780 C.ar    1  UNL1        0.0222
     17 C          62.4066   87.9378   10.5028 C.ar    1  UNL1        0.0401
     18 C          62.8911   85.4919    8.4727 C.3     1  UNL1        0.2525
     19 O          61.5841   85.9449    9.0531 O.3     1  UNL1       -0.4699
@<TRIPOS>BOND
     1    18    19    1
     2    19    12    1
     3    12    13   ar
     4    13    14   ar
     5    14    15   ar
     6    15    16   ar
     7    16     1    1
     8     1     2   ar
     9     2     3   ar
    10     3     4   ar
    11     4     5   ar
    12     5     6   ar
    13     5     7    1
    14     7     8    1
    15     8     9    1
    16     9    10    2
    17     9    11    1
    18    16    17   ar
    19    17    12   ar
    20     6     1   ar
    21    11     4    1
@<TRIPOS>MOLECULE
*****
 19 21 0 0 0
SMALL
GASTEIGER

@<TRIPOS>ATOM
      1 C          62.5852   89.3706   10.9125 C.ar    1  UNL1        0.0013
      2 C          62.8612   88.9712   12.3317 C.ar    1  UNL1       -0.0003
      3 C          63.7785   89.8015   13.1797 C.ar    1  UNL1       -0.0042
      4 C          64.4198   91.0312   12.6084 C.ar    1  UNL1       -0.0188
      5 C          64.1439   91.4307   11.1892 C.ar    1  UNL1       -0.0253
      6 C          63.2266   90.6004   10.3412 C.ar    1  UNL1       -0.0045
      7 C          64.7853   92.6604   10.6179 C.3     1  UNL1        0.0338
      8 C          65.7025   93.4908   11.4659 C.3     1  UNL1        0.0695
      9 C          65.9785   93.0913   12.8852 C.2     1  UNL1        0.1553
     10 O          66.8958   93.9217   13.7332 O.2     1  UNL1       -0.2957
     11 C          65.3372   91.8616   13.4565 C.3     1  UNL1        0.0904
     12 C          59.8091   88.3754    8.2568 C.ar    1  UNL1        0.1578
     13 C          59.8333   86.8797    8.3684 C.ar    1  UNL1        0.1356
     14 N          60.7747   86.2143    9.3280 N.ar    1  UNL1       -0.2391
     15 C          61.6921   87.0446   10.1761 C.ar    1  UNL1        0.0991
     16 C          61.6679   88.5403   10.0644 C.ar    1  UNL1        0.0222
     17 C          60.7264   89.2056    9.1048 C.ar    1  UNL1        0.0401
     18 C          59.4072   89.7864    6.1126 C.3     1  UNL1        0.2525
     19 O          58.8677   89.0407    7.2971 O.3     1  UNL1       -0.4699
@<TRIPOS>BOND
     1    18    19    1
     2    19    12    1
     3    12    13   ar
     4    13    14   ar
     5    14    15   ar
     6    15    16   ar
     7    16     1    1
     8     1     2   ar
     9     2     3   ar
    10     3     4   ar
    11     4     5   ar
    12     5     6   ar
    13     5     7    1
    14     7     8    1
    15     8     9    1
    16     9    10    2
    17     9    11    1
    18    16    17   ar
    19    17    12   ar
    20     6     1   ar
    21    11     4    1
@<TRIPOS>MOLECULE
*****
 19 21 0 0 0
SMALL
GASTEIGER

@<TRIPOS>ATOM
      1 C          63.2098   90.4688   11.6150 C.ar    1  UNL1        0.0013
      2 C          63.8382   91.4484   10.6687 C.ar    1  UNL1       -0.0003
      3 C          64.9484   92.3401   11.1403 C.ar    1  UNL1       -0.0042
      4 C          65.4303   92.2521   12.5581 C.ar    1  UNL1       -0.0188
      5 C          64.8019   91.2725   13.5043 C.ar    1  UNL1       -0.0253
      6 C          63.6916   90.3808   13.0328 C.ar    1  UNL1       -0.0045
      7 C          65.2837   91.1845   14.9221 C.3     1  UNL1        0.0338
      8 C          66.3939   92.0761   15.3936 C.3     1  UNL1        0.0695
      9 C          67.0224   93.0557   14.4473 C.2     1  UNL1        0.1553
     10 O          68.1326   93.9474   14.9189 O.2     1  UNL1       -0.2957
     11 C          66.5406   93.1437   13.0296 C.3     1  UNL1        0.0904
     12 C          61.2505   87.6615    9.6075 C.ar    1  UNL1        0.1578
     13 C          59.8790   87.7938   10.2005 C.ar    1  UNL1        0.1356
     14 N          59.6178   88.8179   11.2650 N.ar    1  UNL1       -0.2391
     15 C          60.7281   89.7095   11.7365 C.ar    1  UNL1        0.0991
     16 C          62.0995   89.5772   11.1435 C.ar    1  UNL1        0.0222
     17 C          62.3607   88.5531   10.0790 C.ar    1  UNL1        0.0401
     18 C          60.3651   86.0212    7.7976 C.3     1  UNL1        0.2525
     19 O          61.5118   86.6375    8.5430 O.3     1  UNL1       -0.4699
@<TRIPOS>BOND
     1    18    19    1
     2    19    12    1
     3    12    13   ar
     4    13    14   ar
     5    14    15   ar
     6    15    16   ar
     7    16     1    1
     8     1     2   ar
     9     2     3   ar
    10     3     4   ar
    11     4     5   ar
    12     5     6   ar
    13     5     7    1
    14     7     8    1
    15     8     9    1
    16     9    10    2
    17     9    11    1
    18    16    17   ar
    19    17    12   ar
    20     6     1   ar
    21    11     4    1
@<TRIPOS>MOLECULE
*****
 19 21 0 0 0
SMALL
GASTEIGER

@<TRIPOS>ATOM
      1 C          62.5925   89.9484   11.7813 C.ar    1  UNL1        0.0013
      2 C          61.4421   90.7602   11.2640 C.ar    1  UNL1       -0.0003
      3 C          60.5138   90.1777   10.2399 C.ar    1  UNL1       -0.0042
      4 C          60.7358   88.7835    9.7331 C.ar    1  UNL1       -0.0188
      5 C          61.8862   87.9718   10.2503 C.ar    1  UNL1       -0.0253
      6 C          62.8146   88.5542   11.2744 C.ar    1  UNL1       -0.0045
      7 C          62.1083   86.5776    9.7434 C.3     1  UNL1        0.0338
      8 C          61.1799   85.9951    8.7193 C.3     1  UNL1        0.0695
      9 C          60.0294   86.8069    8.2020 C.2     1  UNL1        0.1553
     10 O          59.1011   86.2244    7.1779 O.2     1  UNL1       -0.2957
     11 C          59.8074   88.2011    8.7089 C.3     1  UNL1        0.0904
     12 C          65.4764   92.1272   13.4204 C.ar    1  UNL1        0.1578
     13 C          65.3778   91.6958   14.8537 C.ar    1  UNL1        0.1356
     14 N          64.3509   90.6819   15.2628 N.ar    1  UNL1       -0.2391
     15 C          63.4224   90.0994   14.2386 C.ar    1  UNL1        0.0991
     16 C          63.5210   90.5309   12.8054 C.ar    1  UNL1        0.0222
     17 C          64.5479   91.5448   12.3963 C.ar    1  UNL1        0.0401
     18 C          66.1985   94.1162   11.9129 C.3     1  UNL1        0.2525
     19 O          66.5033   93.1411   13.0112 O.3     1  UNL1       -0.4699
@<TRIPOS>BOND
     1    18    19    1
     2    19    12    1
     3    12    13   ar
     4    13    14   ar
     5    14    15   ar
     6    15    16   ar
     7    16     1    1
     8     1     2   ar
     9     2     3   ar
    10     3     4   ar
    11     4     5   ar
    12     5     6   ar
    13     5     7    1
    14     7     8    1
    15     8     9    1
    16     9    10    2
    17     9    11    1
    18    16    17   ar
    19    17    12   ar
    20     6     1   ar
    21    11     4    1
@<TRIPOS>MOLECULE
*****
 19 21 0 0 0
SMALL
GASTEIGER

@<TRIPOS>ATOM
      1 C          63.5150   90.0492   12.3006 C.ar    1  UNL1        0.0013
      2 C          63.5439   88.6002   12.6873 C.ar    1  UNL1       -0.0003
      3 C          62.6871   87.6112   11.9542 C.ar    1  UNL1       -0.0042
      4 C          61.8014   88.0710   10.8343 C.ar    1  UNL1       -0.0188
      5 C          61.7725   89.5200   10.4476 C.ar    1  UNL1       -0.0253
      6 C          62.6294   90.5091   11.1807 C.ar    1  UNL1       -0.0045
      7 C          60.8869   89.9799    9.3277 C.3     1  UNL1        0.0338
      8 C          60.0300   88.9908    8.5946 C.3     1  UNL1        0.0695
      9 C          60.0588   87.5417    8.9814 C.2     1  UNL1        0.1553
     10 O          59.2020   86.5527    8.2482 O.2     1  UNL1       -0.2957
     11 C          60.9445   87.0819   10.1012 C.3     1  UNL1        0.0904
     12 C          66.0068   93.0573   13.0024 C.ar    1  UNL1        0.1578
     13 C          66.0856   93.0167   14.4999 C.ar    1  UNL1        0.1356
     14 N          65.3075   91.9869   15.2642 N.ar    1  UNL1       -0.2391
     15 C          64.4507   90.9978   14.5310 C.ar    1  UNL1        0.0991
     16 C          64.3719   91.0384   13.0337 C.ar    1  UNL1        0.0222
     17 C          65.1500   92.0682   12.2694 C.ar    1  UNL1        0.0401
     18 C          66.1105   94.8969   11.1707 C.3     1  UNL1        0.2525
     19 O          66.7849   94.0871   12.2381 O.3     1  UNL1       -0.4699
@<TRIPOS>BOND
     1    18    19    1
     2    19    12    1
     3    12    13   ar
     4    13    14   ar
     5    14    15   ar
     6    15    16   ar
     7    16     1    1
     8     1     2   ar
     9     2     3   ar
    10     3     4   ar
    11     4     5   ar
    12     5     6   ar
    13     5     7    1
    14     7     8    1
    15     8     9    1
    16     9    10    2
    17     9    11    1
    18    16    17   ar
    19    17    12   ar
    20     6     1   ar
    21    11     4    1
@<TRIPOS>MOLECULE
*****
 19 21 0 0 0
SMALL
GASTEIGER

@<TRIPOS>ATOM
      1 C          64.0042   88.5247   14.0841 C.ar    1  UNL1        0.0013
      2 C          63.3049   88.5523   12.7574 C.ar    1  UNL1       -0.0003
      3 C          62.9764   87.2678   12.0559 C.ar    1  UNL1       -0.0042
      4 C          63.3473   85.9557   12.6812 C.ar    1  UNL1       -0.0188
      5 C          64.0466   85.9281   14.0079 C.ar    1  UNL1       -0.0253
      6 C          64.3750   87.2127   14.7093 C.ar    1  UNL1       -0.0045
      7 C          64.4174   84.6161   14.6331 C.3     1  UNL1        0.0338
      8 C          64.0889   83.3316   13.9317 C.3     1  UNL1        0.0695
      9 C          63.3896   83.3591   12.6049 C.2     1  UNL1        0.1553
     10 O          63.0611   82.0746   11.9034 O.2     1  UNL1       -0.2957
     11 C          63.0187   84.6712   11.9796 C.3     1  UNL1        0.0904
     12 C          65.8609   91.8913   15.0687 C.ar    1  UNL1        0.1578
     13 C          64.9898   92.3784   16.1886 C.ar    1  UNL1        0.1356
     14 N          63.7902   91.5809   16.6070 N.ar    1  UNL1       -0.2391
     15 C          63.4617   90.2963   15.9054 C.ar    1  UNL1        0.0991
     16 C          64.3327   89.8093   14.7856 C.ar    1  UNL1        0.0222
     17 C          65.5323   90.6068   14.3673 C.ar    1  UNL1        0.0401
     18 C          67.9679   93.2791   15.6888 C.3     1  UNL1        0.2525
     19 O          67.0605   92.6887   14.6504 O.3     1  UNL1       -0.4699
@<TRIPOS>BOND
     1    18    19    1
     2    19    12    1
     3    12    13   ar
     4    13    14   ar
     5    14    15   ar
     6    15    16   ar
     7    16     1    1
     8     1     2   ar
     9     2     3   ar
    10     3     4   ar
    11     4     5   ar
    12     5     6   ar
    13     5     7    1
    14     7     8    1
    15     8     9    1
    16     9    10    2
    17     9    11    1
    18    16    17   ar
    19    17    12   ar
    20     6     1   ar
    21    11     4    1
