@<TRIPOS>MOLECULE
*****
 24 26 0 0 0
SMALL
GASTEIGER

@<TRIPOS>ATOM
      1 N          66.3201   92.8217   14.5879 N.ar    1  UNL1       -0.3258
      2 C          66.6561   93.9971   13.7186 C.ar    1  UNL1        0.0802
      3 C          66.1281   94.0682   12.3164 C.ar    1  UNL1        0.0701
      4 C          65.2640   92.9640   11.7835 C.ar    1  UNL1        0.1996
      5 O          64.7360   93.0351   10.3813 O.2     1  UNL1       -0.2864
      6 C          64.9280   91.7885   12.6528 C.ar    1  UNL1        0.0571
      7 C          64.0639   90.6843   12.1198 C.ar    1  UNL1        0.0355
      8 C          63.7279   89.5090   12.9891 C.ar    1  UNL1        0.1535
      9 F          62.8638   88.4047   12.4561 F       1  UNL1       -0.2029
     10 C          64.2559   89.4379   14.3913 C.ar    1  UNL1        0.0772
     11 C          65.1199   90.5421   14.9242 C.ar    1  UNL1        0.0341
     12 C          65.4560   91.7174   14.0550 C.ar    1  UNL1        0.0644
     13 N          63.9198   88.2625   15.2605 N.pl3   1  UNL1       -0.3029
     14 C          64.3421   86.8824   14.8519 C.3     1  UNL1        0.1079
     15 C          64.0060   85.7070   15.7211 C.3     1  UNL1        0.0903
     16 N          63.2477   85.9117   16.9990 N.3     1  UNL1       -0.2946
     17 C          62.8254   87.2919   17.4077 C.3     1  UNL1        0.0903
     18 C          63.1615   88.4672   16.5384 C.3     1  UNL1        0.1079
     19 H          63.8338   85.5485   17.7507 H       1  UNL1        0.1233
     20 C          66.4642   95.2436   11.4472 C.2     1  UNL1        0.0774
     21 O          67.3932   95.0733   10.2819 O.co2   1  UNL1       -0.5444
     22 O          65.8712   96.5892   11.7432 O.co2   1  UNL1       -0.5444
     23 C          68.2796   92.3752   16.2343 C.3     1  UNL1        0.0265
     24 C          66.8481   92.7506   15.9901 C.3     1  UNL1        0.1061
@<TRIPOS>UNITY_ATOM_ATTR
21 1
charge -1
@<TRIPOS>BOND
     1    23    24    1
     2    24     1    1
     3     1     2   ar
     4     2     3   ar
     5     3    20    1
     6    20    21   ar
     7    20    22   ar
     8     3     4   ar
     9     4     5    2
    10     4     6   ar
    11     6     7   ar
    12     7     8   ar
    13     8     9    1
    14     8    10   ar
    15    10    13    1
    16    13    14    1
    17    14    15    1
    18    15    16    1
    19    16    17    1
    20    17    18    1
    21    10    11   ar
    22    11    12   ar
    23    12     1   ar
    24    12     6   ar
    25    18    13    1
    26    16    19    1
@<TRIPOS>MOLECULE
*****
 24 26 0 0 0
SMALL
GASTEIGER

@<TRIPOS>ATOM
      1 N          62.3109   87.5205   11.1772 N.ar    1  UNL1       -0.3258
      2 C          62.6179   88.9880   11.2246 C.ar    1  UNL1        0.0802
      3 C          63.4421   89.5460   12.3468 C.ar    1  UNL1        0.0701
      4 C          63.9594   88.6365   13.4215 C.ar    1  UNL1        0.1996
      5 O          64.7836   89.1945   14.5437 O.2     1  UNL1       -0.2864
      6 C          63.6525   87.1689   13.3742 C.ar    1  UNL1        0.0571
      7 C          64.1698   86.2595   14.4490 C.ar    1  UNL1        0.0355
      8 C          63.8628   84.7920   14.4016 C.ar    1  UNL1        0.1535
      9 F          64.3801   83.8824   15.4764 F       1  UNL1       -0.2029
     10 C          63.0386   84.2340   13.2794 C.ar    1  UNL1        0.0772
     11 C          62.5213   85.1435   12.2046 C.ar    1  UNL1        0.0341
     12 C          62.8282   86.6109   12.2520 C.ar    1  UNL1        0.0644
     13 N          62.7317   82.7664   13.2320 N.pl3   1  UNL1       -0.3029
     14 C          61.8845   82.1425   14.3011 C.3     1  UNL1        0.1079
     15 C          61.5776   80.6750   14.2537 C.3     1  UNL1        0.0903
     16 N          62.1179   79.8314   13.1372 N.3     1  UNL1       -0.2946
     17 C          62.9651   80.4554   12.0681 C.3     1  UNL1        0.0903
     18 C          63.2720   81.9229   12.1156 C.3     1  UNL1        0.1079
     19 H          61.3142   79.4127   12.6691 H       1  UNL1        0.1233
     20 C          63.7490   91.0135   12.3941 C.2     1  UNL1        0.0774
     21 O          63.7400   91.7396   13.7066 O.co2   1  UNL1       -0.5444
     22 O          64.0649   91.7549   11.1290 O.co2   1  UNL1       -0.5444
     23 C          62.1599   86.3676    8.8538 C.3     1  UNL1        0.0265
     24 C          61.4867   86.9625   10.0550 C.3     1  UNL1        0.1061
@<TRIPOS>UNITY_ATOM_ATTR
21 1
charge -1
@<TRIPOS>BOND
     1    23    24    1
     2    24     1    1
     3     1     2   ar
     4     2     3   ar
     5     3    20    1
     6    20    21   ar
     7    20    22   ar
     8     3     4   ar
     9     4     5    2
    10     4     6   ar
    11     6     7   ar
    12     7     8   ar
    13     8     9    1
    14     8    10   ar
    15    10    13    1
    16    13    14    1
    17    14    15    1
    18    15    16    1
    19    16    17    1
    20    17    18    1
    21    10    11   ar
    22    11    12   ar
    23    12     1   ar
    24    12     6   ar
    25    18    13    1
    26    16    19    1
@<TRIPOS>MOLECULE
*****
 24 26 0 0 0
SMALL
GASTEIGER

@<TRIPOS>ATOM
      1 N          64.4038   89.6497   14.3479 N.ar    1  UNL1       -0.3258
      2 C          65.3495   90.5374   15.1012 C.ar    1  UNL1        0.0802
      3 C          65.8452   91.8074   14.4755 C.ar    1  UNL1        0.0701
      4 C          65.3952   92.1896   13.0966 C.ar    1  UNL1        0.1996
      5 O          65.8909   93.4596   12.4710 O.2     1  UNL1       -0.2864
      6 C          64.4494   91.3018   12.3433 C.ar    1  UNL1        0.0571
      7 C          63.9994   91.6840   10.9644 C.ar    1  UNL1        0.0355
      8 C          63.0537   90.7963   10.2112 C.ar    1  UNL1        0.1535
      9 F          62.6036   91.1785    8.8322 F       1  UNL1       -0.2029
     10 C          62.5580   89.5263   10.8368 C.ar    1  UNL1        0.0772
     11 C          63.0080   89.1441   12.2157 C.ar    1  UNL1        0.0341
     12 C          63.9537   90.0318   12.9690 C.ar    1  UNL1        0.0644
     13 N          61.6122   88.6385   10.0835 N.pl3   1  UNL1       -0.3029
     14 C          60.4326   89.2318    9.3719 C.3     1  UNL1        0.1079
     15 C          59.4868   88.3440    8.6186 C.3     1  UNL1        0.0903
     16 N          59.7207   86.8629    8.5769 N.3     1  UNL1       -0.2946
     17 C          60.9004   86.2697    9.2886 C.3     1  UNL1        0.0903
     18 C          61.8461   87.1574   10.0419 C.3     1  UNL1        0.1079
     19 H          59.8105   86.6065    7.5938 H       1  UNL1        0.1233
     20 C          66.7910   92.6952   15.2288 C.2     1  UNL1        0.0774
     21 O          66.5000   93.0636   16.6535 O.co2   1  UNL1       -0.5444
     22 O          68.0277   93.2146   14.5575 O.co2   1  UNL1       -0.5444
     23 C          64.6452   87.0935   14.7449 C.3     1  UNL1        0.0265
     24 C          63.9081   88.3797   14.9736 C.3     1  UNL1        0.1061
@<TRIPOS>UNITY_ATOM_ATTR
21 1
charge -1
@<TRIPOS>BOND
     1    23    24    1
     2    24     1    1
     3     1     2   ar
     4     2     3   ar
     5     3    20    1
     6    20    21   ar
     7    20    22   ar
     8     3     4   ar
     9     4     5    2
    10     4     6   ar
    11     6     7   ar
    12     7     8   ar
    13     8     9    1
    14     8    10   ar
    15    10    13    1
    16    13    14    1
    17    14    15    1
    18    15    16    1
    19    16    17    1
    20    17    18    1
    21    10    11   ar
    22    11    12   ar
    23    12     1   ar
    24    12     6   ar
    25    18    13    1
    26    16    19    1
@<TRIPOS>MOLECULE
*****
 24 26 0 0 0
SMALL
GASTEIGER

@<TRIPOS>ATOM
      1 N          63.9116   88.0783   13.5467 N.ar    1  UNL1       -0.3258
      2 C          64.6656   88.9723   14.4859 C.ar    1  UNL1        0.0802
      3 C          64.7863   90.4382   14.1916 C.ar    1  UNL1        0.0701
      4 C          64.1529   91.0101   12.9580 C.ar    1  UNL1        0.1996
      5 O          64.2735   92.4760   12.6637 O.2     1  UNL1       -0.2864
      6 C          63.3988   90.1162   12.0187 C.ar    1  UNL1        0.0571
      7 C          62.7654   90.6881   10.7852 C.ar    1  UNL1        0.0355
      8 C          62.0114   89.7941    9.8460 C.ar    1  UNL1        0.1535
      9 F          61.3779   90.3660    8.6123 F       1  UNL1       -0.2029
     10 C          61.8907   88.3282   10.1403 C.ar    1  UNL1        0.0772
     11 C          62.5241   87.7563   11.3738 C.ar    1  UNL1        0.0341
     12 C          63.2781   88.6503   12.3130 C.ar    1  UNL1        0.0644
     13 N          61.1366   87.4343    9.2009 N.pl3   1  UNL1       -0.3029
     14 C          61.8386   86.2942    8.5247 C.3     1  UNL1        0.1079
     15 C          61.0845   85.4002    7.5854 C.3     1  UNL1        0.0903
     16 N          59.6284   85.6464    7.3224 N.3     1  UNL1       -0.2946
     17 C          58.9264   86.7865    7.9987 C.3     1  UNL1        0.0903
     18 C          59.6805   87.6804    8.9380 C.3     1  UNL1        0.1079
     19 H          59.1331   84.7956    7.5893 H       1  UNL1        0.1233
     20 C          65.5404   91.3322   15.1309 C.2     1  UNL1        0.0774
     21 O          64.7996   92.1368   16.1575 O.co2   1  UNL1       -0.5444
     22 O          67.0351   91.4215   15.0436 O.co2   1  UNL1       -0.5444
     23 C          64.3540   86.0543   15.1143 C.3     1  UNL1        0.0265
     24 C          63.7909   86.6125   13.8410 C.3     1  UNL1        0.1061
@<TRIPOS>UNITY_ATOM_ATTR
21 1
charge -1
@<TRIPOS>BOND
     1    23    24    1
     2    24     1    1
     3     1     2   ar
     4     2     3   ar
     5     3    20    1
     6    20    21   ar
     7    20    22   ar
     8     3     4   ar
     9     4     5    2
    10     4     6   ar
    11     6     7   ar
    12     7     8   ar
    13     8     9    1
    14     8    10   ar
    15    10    13    1
    16    13    14    1
    17    14    15    1
    18    15    16    1
    19    16    17    1
    20    17    18    1
    21    10    11   ar
    22    11    12   ar
    23    12     1   ar
    24    12     6   ar
    25    18    13    1
    26    16    19    1
@<TRIPOS>MOLECULE
*****
 24 26 0 0 0
SMALL
GASTEIGER

@<TRIPOS>ATOM
      1 N          62.0292   86.6013   11.2248 N.ar    1  UNL1       -0.3258
      2 C          61.1698   85.9925   10.1567 C.ar    1  UNL1        0.0802
      3 C          60.6093   86.8535    9.0637 C.ar    1  UNL1        0.0701
      4 C          60.9083   88.3231    9.0387 C.ar    1  UNL1        0.1996
      5 O          60.3479   89.1841    7.9457 O.2     1  UNL1       -0.2864
      6 C          61.7678   88.9319   10.1068 C.ar    1  UNL1        0.0571
      7 C          62.0668   90.4016   10.0819 C.ar    1  UNL1        0.0355
      8 C          62.9263   91.0103   11.1499 C.ar    1  UNL1        0.1535
      9 F          63.2253   92.4800   11.1250 F       1  UNL1       -0.2029
     10 C          63.4867   90.1493   12.2430 C.ar    1  UNL1        0.0772
     11 C          63.1877   88.6797   12.2679 C.ar    1  UNL1        0.0341
     12 C          62.3282   88.0710   11.1999 C.ar    1  UNL1        0.0644
     13 N          64.3462   90.7581   13.3110 N.pl3   1  UNL1       -0.3029
     14 C          65.6714   91.3628   12.9533 C.3     1  UNL1        0.1079
     15 C          66.5309   91.9716   14.0214 C.3     1  UNL1        0.0903
     16 N          66.0651   91.9757   15.4472 N.3     1  UNL1       -0.2946
     17 C          64.7397   91.3709   15.8049 C.3     1  UNL1        0.0903
     18 C          63.8803   90.7622   14.7369 C.3     1  UNL1        0.1079
     19 H          66.0333   92.9510   15.7439 H       1  UNL1        0.1233
     20 C          59.7498   86.2447    7.9956 C.2     1  UNL1        0.0774
     21 O          60.3309   85.2360    7.0497 O.co2   1  UNL1       -0.5444
     22 O          58.3093   86.6447    7.8735 O.co2   1  UNL1       -0.5444
     23 C          62.9051   84.2986   12.0497 C.3     1  UNL1        0.0265
     24 C          62.5896   85.7403   12.3178 C.3     1  UNL1        0.1061
@<TRIPOS>UNITY_ATOM_ATTR
21 1
charge -1
@<TRIPOS>BOND
     1    23    24    1
     2    24     1    1
     3     1     2   ar
     4     2     3   ar
     5     3    20    1
     6    20    21   ar
     7    20    22   ar
     8     3     4   ar
     9     4     5    2
    10     4     6   ar
    11     6     7   ar
    12     7     8   ar
    13     8     9    1
    14     8    10   ar
    15    10    13    1
    16    13    14    1
    17    14    15    1
    18    15    16    1
    19    16    17    1
    20    17    18    1
    21    10    11   ar
    22    11    12   ar
    23    12     1   ar
    24    12     6   ar
    25    18    13    1
    26    16    19    1
@<TRIPOS>MOLECULE
*****
 24 26 0 0 0
SMALL
GASTEIGER

@<TRIPOS>ATOM
      1 N          63.2830   90.5009   11.6773 N.ar    1  UNL1       -0.3258
      2 C          63.7430   91.1589   12.9443 C.ar    1  UNL1        0.0802
      3 C          63.9686   90.3358   14.1779 C.ar    1  UNL1        0.0701
      4 C          63.7342   88.8547   14.1444 C.ar    1  UNL1        0.1996
      5 O          63.9598   88.0315   15.3779 O.2     1  UNL1       -0.2864
      6 C          63.2741   88.1965   12.8774 C.ar    1  UNL1        0.0571
      7 C          63.0397   86.7154   12.8439 C.ar    1  UNL1        0.0355
      8 C          62.5796   86.0573   11.5769 C.ar    1  UNL1        0.1535
      9 F          62.3452   84.5761   11.5434 F       1  UNL1       -0.2029
     10 C          62.3540   86.8805   10.3434 C.ar    1  UNL1        0.0772
     11 C          62.5885   88.3616   10.3768 C.ar    1  UNL1        0.0341
     12 C          63.0485   89.0197   11.6438 C.ar    1  UNL1        0.0644
     13 N          61.8940   86.2223    9.0764 N.pl3   1  UNL1       -0.3029
     14 C          60.4786   86.3972    8.6115 C.3     1  UNL1        0.1079
     15 C          60.0185   85.7391    7.3445 C.3     1  UNL1        0.0903
     16 N          60.9739   84.9061    6.5424 N.3     1  UNL1       -0.2946
     17 C          62.3894   84.7313    7.0072 C.3     1  UNL1        0.0903
     18 C          62.8494   85.3894    8.2742 C.3     1  UNL1        0.1079
     19 H          61.0188   85.3228    5.6124 H       1  UNL1        0.1233
     20 C          64.4287   90.9939   15.4449 C.2     1  UNL1        0.0774
     21 O          65.7656   91.6724   15.4950 O.co2   1  UNL1       -0.5444
     22 O          63.5519   90.9736   16.6617 O.co2   1  UNL1       -0.5444
     23 C          64.0649   92.3584   10.0377 C.3     1  UNL1        0.0265
     24 C          63.0574   91.3240   10.4438 C.3     1  UNL1        0.1061
@<TRIPOS>UNITY_ATOM_ATTR
21 1
charge -1
@<TRIPOS>BOND
     1    23    24    1
     2    24     1    1
     3     1     2   ar
     4     2     3   ar
     5     3    20    1
     6    20    21   ar
     7    20    22   ar
     8     3     4   ar
     9     4     5    2
    10     4     6   ar
    11     6     7   ar
    12     7     8   ar
    13     8     9    1
    14     8    10   ar
    15    10    13    1
    16    13    14    1
    17    14    15    1
    18    15    16    1
    19    16    17    1
    20    17    18    1
    21    10    11   ar
    22    11    12   ar
    23    12     1   ar
    24    12     6   ar
    25    18    13    1
    26    16    19    1
@<TRIPOS>MOLECULE
*****
 24 26 0 0 0
SMALL
GASTEIGER

@<TRIPOS>ATOM
      1 N          63.5842   90.3946   11.8387 N.ar    1  UNL1       -0.3258
      2 C          63.1788   89.4783   12.9549 C.ar    1  UNL1        0.0802
      3 C          63.6369   89.7548   14.3562 C.ar    1  UNL1        0.0701
      4 C          64.5004   90.9476   14.6413 C.ar    1  UNL1        0.1996
      5 O          64.9586   91.2242   16.0426 O.2     1  UNL1       -0.2864
      6 C          64.9059   91.8641   13.5251 C.ar    1  UNL1        0.0571
      7 C          65.7695   93.0569   13.8102 C.ar    1  UNL1        0.0355
      8 C          66.1750   93.9732   12.6940 C.ar    1  UNL1        0.1535
      9 F          67.0386   95.1661   12.9791 F       1  UNL1       -0.2029
     10 C          65.7169   93.6967   11.2927 C.ar    1  UNL1        0.0772
     11 C          64.8533   92.5039   11.0076 C.ar    1  UNL1        0.0341
     12 C          64.4478   91.5875   12.1238 C.ar    1  UNL1        0.0644
     13 N          66.1224   94.6131   10.1765 N.pl3   1  UNL1       -0.3029
     14 C          65.4420   95.9396   10.0105 C.3     1  UNL1        0.1079
     15 C          65.8475   96.8560    8.8943 C.3     1  UNL1        0.0903
     16 N          66.9334   96.4458    7.9442 N.3     1  UNL1       -0.2946
     17 C          67.6137   95.1193    8.1102 C.3     1  UNL1        0.0903
     18 C          67.2082   94.2030    9.2264 C.3     1  UNL1        0.1079
     19 H          67.6604   97.1589    8.0023 H       1  UNL1        0.1233
     20 C          63.2314   88.8384   15.4724 C.2     1  UNL1        0.0774
     21 O          63.8869   87.4970   15.6171 O.co2   1  UNL1       -0.5444
     22 O          62.1704   89.2634   16.4437 O.co2   1  UNL1       -0.5444
     23 C          62.3914   88.8482   10.1253 C.3     1  UNL1        0.0265
     24 C          63.1261   90.1181   10.4374 C.3     1  UNL1        0.1061
@<TRIPOS>UNITY_ATOM_ATTR
21 1
charge -1
@<TRIPOS>BOND
     1    23    24    1
     2    24     1    1
     3     1     2   ar
     4     2     3   ar
     5     3    20    1
     6    20    21   ar
     7    20    22   ar
     8     3     4   ar
     9     4     5    2
    10     4     6   ar
    11     6     7   ar
    12     7     8   ar
    13     8     9    1
    14     8    10   ar
    15    10    13    1
    16    13    14    1
    17    14    15    1
    18    15    16    1
    19    16    17    1
    20    17    18    1
    21    10    11   ar
    22    11    12   ar
    23    12     1   ar
    24    12     6   ar
    25    18    13    1
    26    16    19    1
@<TRIPOS>MOLECULE
*****
 24 26 0 0 0
SMALL
GASTEIGER

@<TRIPOS>ATOM
      1 N          62.4062   84.1949   14.2515 N.ar    1  UNL1       -0.3258
      2 C          62.6163   82.7349   14.5239 C.ar    1  UNL1        0.0802
      3 C          62.8949   81.7929   13.3902 C.ar    1  UNL1        0.0701
      4 C          62.9634   82.3109   11.9842 C.ar    1  UNL1        0.1996
      5 O          63.2420   81.3690   10.8506 O.2     1  UNL1       -0.2864
      6 C          62.7533   83.7710   11.7118 C.ar    1  UNL1        0.0571
      7 C          62.8219   84.2890   10.3058 C.ar    1  UNL1        0.0355
      8 C          62.6118   85.7490   10.0334 C.ar    1  UNL1        0.1535
      9 F          62.6803   86.2671    8.6273 F       1  UNL1       -0.2029
     10 C          62.3332   86.6910   11.1670 C.ar    1  UNL1        0.0772
     11 C          62.2647   86.1730   12.5730 C.ar    1  UNL1        0.0341
     12 C          62.4747   84.7130   12.8454 C.ar    1  UNL1        0.0644
     13 N          62.1232   88.1511   10.8946 N.pl3   1  UNL1       -0.3029
     14 C          62.9724   89.1735   11.5897 C.3     1  UNL1        0.1079
     15 C          62.7624   90.6336   11.3173 C.3     1  UNL1        0.0903
     16 N          61.7030   91.0711   10.3497 N.3     1  UNL1       -0.2946
     17 C          60.8537   90.0486    9.6545 C.3     1  UNL1        0.0903
     18 C          61.0638   88.5886    9.9269 C.3     1  UNL1        0.1079
     19 H          62.1734   91.6078    9.6209 H       1  UNL1        0.1233
     20 C          63.1049   80.3328   13.6627 C.2     1  UNL1        0.0774
     21 O          64.2771   79.8843   14.4842 O.co2   1  UNL1       -0.5444
     22 O          62.1429   79.3214   13.1137 O.co2   1  UNL1       -0.5444
     23 C          63.2196   85.4932   16.3497 C.3     1  UNL1        0.0265
     24 C          62.1276   85.1368   15.3851 C.3     1  UNL1        0.1061
@<TRIPOS>UNITY_ATOM_ATTR
21 1
charge -1
@<TRIPOS>BOND
     1    23    24    1
     2    24     1    1
     3     1     2   ar
     4     2     3   ar
     5     3    20    1
     6    20    21   ar
     7    20    22   ar
     8     3     4   ar
     9     4     5    2
    10     4     6   ar
    11     6     7   ar
    12     7     8   ar
    13     8     9    1
    14     8    10   ar
    15    10    13    1
    16    13    14    1
    17    14    15    1
    18    15    16    1
    19    16    17    1
    20    17    18    1
    21    10    11   ar
    22    11    12   ar
    23    12     1   ar
    24    12     6   ar
    25    18    13    1
    26    16    19    1
@<TRIPOS>MOLECULE
*****
 24 26 0 0 0
SMALL
GASTEIGER

@<TRIPOS>ATOM
      1 N          62.5837   84.3578   11.1613 N.ar    1  UNL1       -0.3258
      2 C          62.4567   82.8642   11.2147 C.ar    1  UNL1        0.0802
      3 C          62.8205   82.1249   12.4681 C.ar    1  UNL1        0.0701
      4 C          63.3114   82.8792   13.6681 C.ar    1  UNL1        0.1996
      5 O          63.6752   82.1398   14.9215 O.2     1  UNL1       -0.2864
      6 C          63.4385   84.3729   13.6148 C.ar    1  UNL1        0.0571
      7 C          63.9294   85.1272   14.8148 C.ar    1  UNL1        0.0355
      8 C          64.0565   86.6208   14.7614 C.ar    1  UNL1        0.1535
      9 F          64.5474   87.3751   15.9614 F       1  UNL1       -0.2029
     10 C          63.6926   87.3601   13.5080 C.ar    1  UNL1        0.0772
     11 C          63.2017   86.6058   12.3080 C.ar    1  UNL1        0.0341
     12 C          63.0747   85.1122   12.3614 C.ar    1  UNL1        0.0644
     13 N          63.8197   88.8538   13.4546 N.pl3   1  UNL1       -0.3029
     14 C          63.2163   89.6176   12.3134 C.3     1  UNL1        0.1079
     15 C          63.3434   91.1113   12.2600 C.3     1  UNL1        0.0903
     16 N          64.0739   91.8411   13.3479 N.3     1  UNL1       -0.2946
     17 C          64.6774   91.0773   14.4892 C.3     1  UNL1        0.0903
     18 C          64.5503   89.5837   14.5425 C.3     1  UNL1        0.1079
     19 H          63.4127   92.5033   13.7537 H       1  UNL1        0.1233
     20 C          62.6934   80.6312   12.5215 C.2     1  UNL1        0.0774
     21 O          62.3369   79.9545   13.8118 O.co2   1  UNL1       -0.5444
     22 O          62.9228   79.8143   11.2846 O.co2   1  UNL1       -0.5444
     23 C          63.1441   85.0711    8.7268 C.3     1  UNL1        0.0265
     24 C          62.2199   85.0972    9.9079 C.3     1  UNL1        0.1061
@<TRIPOS>UNITY_ATOM_ATTR
21 1
charge -1
@<TRIPOS>BOND
     1    23    24    1
     2    24     1    1
     3     1     2   ar
     4     2     3   ar
     5     3    20    1
     6    20    21   ar
     7    20    22   ar
     8     3     4   ar
     9     4     5    2
    10     4     6   ar
    11     6     7   ar
    12     7     8   ar
    13     8     9    1
    14     8    10   ar
    15    10    13    1
    16    13    14    1
    17    14    15    1
    18    15    16    1
    19    16    17    1
    20    17    18    1
    21    10    11   ar
    22    11    12   ar
    23    12     1   ar
    24    12     6   ar
    25    18    13    1
    26    16    19    1
