@<TRIPOS>MOLECULE
*****
 29 32 0 0 0
SMALL
GASTEIGER

@<TRIPOS>ATOM
      1 N          62.3630   86.3055   11.6798 N.pl3   1  UNL1       -0.2872
      2 C          62.6995   82.0538   13.1150 C.ar    1  UNL1        0.0715
      3 C          62.2709   83.1339   14.0635 C.ar    1  UNL1        0.0051
      4 C          62.1587   84.5511   13.5851 C.ar    1  UNL1        0.0148
      5 C          62.4752   84.8883   12.1582 C.ar    1  UNL1        0.0515
      6 C          62.9037   83.8082   11.2097 C.ar    1  UNL1        0.0148
      7 C          63.0159   82.3910   11.6880 C.ar    1  UNL1        0.0051
      8 F          62.9238   79.2193   14.0717 F       1  UNL1       -0.1659
      9 C          62.8117   80.6366   13.5933 C.3     1  UNL1        0.4186
     10 F          61.3160   80.5234   13.6088 F       1  UNL1       -0.1659
     11 F          64.3073   80.7497   13.5778 F       1  UNL1       -0.1659
     12 C          61.5616   86.6214   10.4518 C.ar    1  UNL1        0.0710
     13 C          61.9721   86.0592    9.1232 C.ar    1  UNL1        0.0180
     14 C          61.1707   86.3751    7.8951 C.ar    1  UNL1        0.0220
     15 C          59.9588   87.2532    7.9958 C.ar    1  UNL1        0.0990
     16 N          59.5483   87.8154    9.3245 N.ar    1  UNL1       -0.2410
     17 C          60.3496   87.4996   10.5525 C.ar    1  UNL1        0.1136
     18 C          63.0522   87.4069   12.4294 C.3     1  UNL1        0.0807
     19 C          63.8109   87.0983   13.6861 C.3     1  UNL1        0.0416
     20 C          64.5001   88.1997   14.4357 C.3     1  UNL1        0.0953
     21 N          64.4307   89.6097   13.9286 N.pl3   1  UNL1       -0.2781
     22 C          63.6720   89.9183   12.6720 C.3     1  UNL1        0.0953
     23 C          62.9827   88.8169   11.9224 C.3     1  UNL1        0.0416
     24 C          65.1199   90.7111   14.6783 C.ar    1  UNL1        0.2202
     25 N          64.4094   91.4173   15.7947 N.ar    1  UNL1       -0.2121
     26 C          65.0987   92.5186   16.5443 C.ar    1  UNL1        0.1034
     27 C          66.4985   92.9137   16.1775 C.ar    1  UNL1        0.0414
     28 C          67.2090   92.2075   15.0611 C.ar    1  UNL1        0.1034
     29 N          66.5197   91.1062   14.3115 N.ar    1  UNL1       -0.2121
@<TRIPOS>BOND
     1     8     9    1
     2     9    10    1
     3     9    11    1
     4     9     2    1
     5     2     3   ar
     6     3     4   ar
     7     4     5   ar
     8     5     1    1
     9     1    12    1
    10    12    13   ar
    11    13    14   ar
    12    14    15   ar
    13    15    16   ar
    14    16    17   ar
    15     1    18    1
    16    18    19    1
    17    19    20    1
    18    20    21    1
    19    21    24    1
    20    24    25   ar
    21    25    26   ar
    22    26    27   ar
    23    27    28   ar
    24    28    29   ar
    25    21    22    1
    26    22    23    1
    27     5     6   ar
    28     6     7   ar
    29     7     2   ar
    30    17    12   ar
    31    23    18    1
    32    29    24   ar
@<TRIPOS>MOLECULE
*****
 29 32 0 0 0
SMALL
GASTEIGER

@<TRIPOS>ATOM
      1 N          62.3340   86.3442   11.6914 N.pl3   1  UNL1       -0.2872
      2 C          62.6633   82.0883   13.1155 C.ar    1  UNL1        0.0715
      3 C          62.9638   82.4259   11.6853 C.ar    1  UNL1        0.0051
      4 C          62.8540   83.8446   11.2106 C.ar    1  UNL1        0.0148
      5 C          62.4437   84.9256   12.1661 C.ar    1  UNL1        0.0515
      6 C          62.1432   84.5879   13.5963 C.ar    1  UNL1        0.0148
      7 C          62.2530   83.1692   14.0710 C.ar    1  UNL1        0.0051
      8 F          62.8828   79.2509   14.0649 F       1  UNL1       -0.1659
      9 C          62.7731   80.6696   13.5902 C.3     1  UNL1        0.4186
     10 F          64.2689   80.7668   13.5348 F       1  UNL1       -0.1659
     11 F          61.2772   80.5724   13.6456 F       1  UNL1       -0.1659
     12 C          61.5228   86.6663   10.4715 C.ar    1  UNL1        0.0710
     13 C          61.9237   86.1122    9.1365 C.ar    1  UNL1        0.0180
     14 C          61.1124   86.4343    7.9165 C.ar    1  UNL1        0.0220
     15 C          59.9003   87.3104    8.0316 C.ar    1  UNL1        0.0990
     16 N          59.4994   87.8644    9.3667 N.ar    1  UNL1       -0.2410
     17 C          60.3106   87.5424   10.5866 C.ar    1  UNL1        0.1136
     18 C          63.0354   87.4409   12.4366 C.3     1  UNL1        0.0807
     19 C          62.9805   88.8498   11.9246 C.3     1  UNL1        0.0416
     20 C          63.6819   89.9464   12.6698 C.3     1  UNL1        0.0953
     21 N          64.4382   89.6342   13.9270 N.pl3   1  UNL1       -0.2781
     22 C          64.4931   88.2254   14.4390 C.3     1  UNL1        0.0953
     23 C          63.7916   87.1287   13.6938 C.3     1  UNL1        0.0416
     24 C          65.1396   90.7310   14.6723 C.ar    1  UNL1        0.2202
     25 N          66.5408   91.1145   14.2986 N.ar    1  UNL1       -0.2121
     26 C          67.2421   92.2112   15.0438 C.ar    1  UNL1        0.1034
     27 C          66.5423   92.9243   16.1627 C.ar    1  UNL1        0.0414
     28 C          65.1412   92.5407   16.5363 C.ar    1  UNL1        0.1034
     29 N          64.4398   91.4441   15.7911 N.ar    1  UNL1       -0.2121
@<TRIPOS>BOND
     1     8     9    1
     2     9    10    1
     3     9    11    1
     4     9     2    1
     5     2     3   ar
     6     3     4   ar
     7     4     5   ar
     8     5     1    1
     9     1    12    1
    10    12    13   ar
    11    13    14   ar
    12    14    15   ar
    13    15    16   ar
    14    16    17   ar
    15     1    18    1
    16    18    19    1
    17    19    20    1
    18    20    21    1
    19    21    24    1
    20    24    25   ar
    21    25    26   ar
    22    26    27   ar
    23    27    28   ar
    24    28    29   ar
    25    21    22    1
    26    22    23    1
    27     5     6   ar
    28     6     7   ar
    29     7     2   ar
    30    17    12   ar
    31    23    18    1
    32    29    24   ar
@<TRIPOS>MOLECULE
*****
 29 32 0 0 0
SMALL
GASTEIGER

@<TRIPOS>ATOM
      1 N          62.8579   85.0491   12.1387 N.pl3   1  UNL1       -0.2872
      2 C          62.2035   84.9200    7.6884 C.ar    1  UNL1        0.0715
      3 C          61.2342   85.6524    8.5680 C.ar    1  UNL1        0.0051
      4 C          61.4523   85.6955   10.0514 C.ar    1  UNL1        0.0148
      5 C          62.6398   85.0061   10.6552 C.ar    1  UNL1        0.0515
      6 C          63.6091   84.2736    9.7756 C.ar    1  UNL1        0.0148
      7 C          63.3910   84.2305    8.2921 C.ar    1  UNL1        0.0051
      8 F          61.7673   84.8338    4.7215 F       1  UNL1       -0.1659
      9 C          61.9854   84.8769    6.2049 C.3     1  UNL1        0.4186
     10 F          63.4460   84.6050    5.9981 F       1  UNL1       -0.1659
     11 F          60.5248   85.1488    6.4118 F       1  UNL1       -0.1659
     12 C          62.6285   83.8195   12.9664 C.ar    1  UNL1        0.0710
     13 C          62.5310   82.4770   12.3044 C.ar    1  UNL1        0.0180
     14 C          62.3016   81.2474   13.1322 C.ar    1  UNL1        0.0220
     15 C          62.1697   81.3601   14.6221 C.ar    1  UNL1        0.0990
     16 N          62.2672   82.7026   15.2842 N.ar    1  UNL1       -0.2410
     17 C          62.4966   83.9322   14.4564 C.ar    1  UNL1        0.1136
     18 C          63.3054   86.3218   12.7943 C.3     1  UNL1        0.0807
     19 C          64.0501   86.2736   14.0956 C.3     1  UNL1        0.0416
     20 C          64.4976   87.5463   14.7512 C.3     1  UNL1        0.0953
     21 N          64.2005   88.8673   14.1056 N.pl3   1  UNL1       -0.2781
     22 C          63.4559   88.9156   12.8044 C.3     1  UNL1        0.0953
     23 C          63.0083   87.6428   12.1487 C.3     1  UNL1        0.0416
     24 C          64.6480   90.1400   14.7613 C.ar    1  UNL1        0.2202
     25 N          65.9099   90.8132   14.3092 N.ar    1  UNL1       -0.2121
     26 C          66.3574   92.0859   14.9649 C.ar    1  UNL1        0.1034
     27 C          65.5430   92.6854   16.0728 C.ar    1  UNL1        0.0414
     28 C          64.2811   92.0123   16.5249 C.ar    1  UNL1        0.1034
     29 N          63.8336   90.7396   15.8692 N.ar    1  UNL1       -0.2121
@<TRIPOS>BOND
     1     8     9    1
     2     9    10    1
     3     9    11    1
     4     9     2    1
     5     2     3   ar
     6     3     4   ar
     7     4     5   ar
     8     5     1    1
     9     1    12    1
    10    12    13   ar
    11    13    14   ar
    12    14    15   ar
    13    15    16   ar
    14    16    17   ar
    15     1    18    1
    16    18    19    1
    17    19    20    1
    18    20    21    1
    19    21    24    1
    20    24    25   ar
    21    25    26   ar
    22    26    27   ar
    23    27    28   ar
    24    28    29   ar
    25    21    22    1
    26    22    23    1
    27     5     6   ar
    28     6     7   ar
    29     7     2   ar
    30    17    12   ar
    31    23    18    1
    32    29    24   ar
@<TRIPOS>MOLECULE
*****
 29 32 0 0 0
SMALL
GASTEIGER

@<TRIPOS>ATOM
      1 N          62.8023   86.0939   12.3200 N.pl3   1  UNL1       -0.2872
      2 C          60.2357   86.7409    8.6807 C.ar    1  UNL1        0.0715
      3 C          61.4527   85.8682    8.5947 C.ar    1  UNL1        0.0051
      4 C          62.3082   85.6526    9.8078 C.ar    1  UNL1        0.0148
      5 C          61.9468   86.3096   11.1069 C.ar    1  UNL1        0.0515
      6 C          60.7298   87.1822   11.1929 C.ar    1  UNL1        0.0148
      7 C          59.8743   87.3979    9.9798 C.ar    1  UNL1        0.0051
      8 F          58.5247   87.1722    6.2546 F       1  UNL1       -0.1659
      9 C          59.3802   86.9566    7.4677 C.3     1  UNL1        0.4186
     10 F          59.6715   85.5570    7.0134 F       1  UNL1       -0.1659
     11 F          59.0890   88.3562    7.9219 F       1  UNL1       -0.1659
     12 C          62.9906   84.7106   12.8687 C.ar    1  UNL1        0.0710
     13 C          63.9500   83.7658   12.2078 C.ar    1  UNL1        0.0180
     14 C          64.1383   82.3825   12.7565 C.ar    1  UNL1        0.0220
     15 C          63.3671   81.9441   13.9661 C.ar    1  UNL1        0.0990
     16 N          62.4077   82.8889   14.6270 N.ar    1  UNL1       -0.2410
     17 C          62.2194   84.2722   14.0783 C.ar    1  UNL1        0.1136
     18 C          63.4696   87.2615   12.9844 C.3     1  UNL1        0.0807
     19 C          64.2196   87.0656   14.2686 C.3     1  UNL1        0.0416
     20 C          64.8869   88.2332   14.9330 C.3     1  UNL1        0.0953
     21 N          64.8041   89.5967   14.3132 N.pl3   1  UNL1       -0.2781
     22 C          64.0541   89.7926   13.0291 C.3     1  UNL1        0.0953
     23 C          63.3868   88.6250   12.3646 C.3     1  UNL1        0.0416
     24 C          65.4714   90.7643   14.9777 C.ar    1  UNL1        0.2202
     25 N          64.7022   91.6197   15.9402 N.ar    1  UNL1       -0.2121
     26 C          65.3695   92.7873   16.6046 C.ar    1  UNL1        0.1034
     27 C          66.8060   93.0994   16.3065 C.ar    1  UNL1        0.0414
     28 C          67.5753   92.2440   15.3440 C.ar    1  UNL1        0.1034
     29 N          66.9080   91.0765   14.6796 N.ar    1  UNL1       -0.2121
@<TRIPOS>BOND
     1     8     9    1
     2     9    10    1
     3     9    11    1
     4     9     2    1
     5     2     3   ar
     6     3     4   ar
     7     4     5   ar
     8     5     1    1
     9     1    12    1
    10    12    13   ar
    11    13    14   ar
    12    14    15   ar
    13    15    16   ar
    14    16    17   ar
    15     1    18    1
    16    18    19    1
    17    19    20    1
    18    20    21    1
    19    21    24    1
    20    24    25   ar
    21    25    26   ar
    22    26    27   ar
    23    27    28   ar
    24    28    29   ar
    25    21    22    1
    26    22    23    1
    27     5     6   ar
    28     6     7   ar
    29     7     2   ar
    30    17    12   ar
    31    23    18    1
    32    29    24   ar
@<TRIPOS>MOLECULE
*****
 29 32 0 0 0
SMALL
GASTEIGER

@<TRIPOS>ATOM
      1 N          71.6483   73.3450   15.4023 N.pl3   1  UNL1       -0.2872
      2 C          70.0446   69.7916   13.1547 C.ar    1  UNL1        0.0715
      3 C          70.9307   69.5870   14.3475 C.ar    1  UNL1        0.0051
      4 C          71.4653   70.7714   15.0967 C.ar    1  UNL1        0.0148
      5 C          71.1137   72.1605   14.6531 C.ar    1  UNL1        0.0515
      6 C          70.2276   72.3651   13.4603 C.ar    1  UNL1        0.0148
      7 C          69.6931   71.1807   12.7111 C.ar    1  UNL1        0.0051
      8 F          68.9755   67.4227   11.6563 F       1  UNL1       -0.1659
      9 C          69.5100   68.6071   12.4055 C.3     1  UNL1        0.4186
     10 F          68.7552   69.5261   11.4913 F       1  UNL1       -0.1659
     11 F          70.2649   67.6882   13.3197 F       1  UNL1       -0.1659
     12 C          71.8968   73.2489   16.8784 C.ar    1  UNL1        0.0710
     13 C          70.7634   72.9409   17.8114 C.ar    1  UNL1        0.0180
     14 C          71.0120   72.8448   19.2876 C.ar    1  UNL1        0.0220
     15 C          72.3940   73.0568   19.8307 C.ar    1  UNL1        0.0990
     16 N          73.5275   73.3647   18.8978 N.ar    1  UNL1       -0.2410
     17 C          73.2789   73.4608   17.4217 C.ar    1  UNL1        0.1136
     18 C          71.9343   74.6255   14.6754 C.3     1  UNL1        0.0807
     19 C          73.0745   74.6976   13.7033 C.3     1  UNL1        0.0416
     20 C          73.3605   75.9781   12.9764 C.3     1  UNL1        0.0953
     21 N          72.5064   77.1866   13.2216 N.pl3   1  UNL1       -0.2781
     22 C          71.3662   77.1145   14.1936 C.3     1  UNL1        0.0953
     23 C          71.0802   75.8339   14.9206 C.3     1  UNL1        0.0416
     24 C          72.7924   78.4671   12.4946 C.ar    1  UNL1        0.2202
     25 N          73.3445   79.6457   13.2403 N.ar    1  UNL1       -0.2121
     26 C          73.6305   80.9261   12.5134 C.ar    1  UNL1        0.1034
     27 C          73.3645   81.0281   11.0407 C.ar    1  UNL1        0.0414
     28 C          72.8124   79.8495   10.2950 C.ar    1  UNL1        0.1034
     29 N          72.5263   78.5691   11.0219 N.ar    1  UNL1       -0.2121
@<TRIPOS>BOND
     1     8     9    1
     2     9    10    1
     3     9    11    1
     4     9     2    1
     5     2     3   ar
     6     3     4   ar
     7     4     5   ar
     8     5     1    1
     9     1    12    1
    10    12    13   ar
    11    13    14   ar
    12    14    15   ar
    13    15    16   ar
    14    16    17   ar
    15     1    18    1
    16    18    19    1
    17    19    20    1
    18    20    21    1
    19    21    24    1
    20    24    25   ar
    21    25    26   ar
    22    26    27   ar
    23    27    28   ar
    24    28    29   ar
    25    21    22    1
    26    22    23    1
    27     5     6   ar
    28     6     7   ar
    29     7     2   ar
    30    17    12   ar
    31    23    18    1
    32    29    24   ar
@<TRIPOS>MOLECULE
*****
 29 32 0 0 0
SMALL
GASTEIGER

@<TRIPOS>ATOM
      1 N          62.7136   88.6430   12.0859 N.pl3   1  UNL1       -0.2872
      2 C          65.5210   91.4268   14.2349 C.ar    1  UNL1        0.0715
      3 C          64.9950   91.7921   12.8785 C.ar    1  UNL1        0.0051
      4 C          64.0591   90.8641   12.1622 C.ar    1  UNL1        0.0148
      5 C          63.6494   89.5709   12.8022 C.ar    1  UNL1        0.0515
      6 C          64.1755   89.2057   14.1586 C.ar    1  UNL1        0.0148
      7 C          65.1113   90.1336   14.8749 C.ar    1  UNL1        0.0051
      8 F          67.3927   93.2827   15.6675 F       1  UNL1       -0.1659
      9 C          66.4569   92.3548   14.9512 C.3     1  UNL1        0.4186
     10 F          65.4874   92.4521   16.0916 F       1  UNL1       -0.1659
     11 F          67.4264   92.2574   13.8108 F       1  UNL1       -0.1659
     12 C          61.6958   89.1937   11.1316 C.ar    1  UNL1        0.0710
     13 C          61.7280   88.7923    9.6866 C.ar    1  UNL1        0.0180
     14 C          60.7101   89.3431    8.7323 C.ar    1  UNL1        0.0220
     15 C          59.6601   90.2953    9.2230 C.ar    1  UNL1        0.0990
     16 N          59.6279   90.6967   10.6679 N.ar    1  UNL1       -0.2410
     17 C          60.6457   90.1459   11.6222 C.ar    1  UNL1        0.1136
     18 C          62.7955   87.1643   12.3238 C.3     1  UNL1        0.0807
     19 C          63.5544   86.6355   13.5048 C.3     1  UNL1        0.0416
     20 C          63.6364   85.1568   13.7428 C.3     1  UNL1        0.0953
     21 N          62.9595   84.2068   12.7998 N.pl3   1  UNL1       -0.2781
     22 C          62.2006   84.7354   11.6189 C.3     1  UNL1        0.0953
     23 C          62.1186   86.2142   11.3809 C.3     1  UNL1        0.0416
     24 C          63.0415   82.7280   13.0378 C.ar    1  UNL1        0.2202
     25 N          63.5279   82.2066   14.3574 N.ar    1  UNL1       -0.2121
     26 C          63.6099   80.7279   14.5954 C.ar    1  UNL1        0.1034
     27 C          63.2054   79.7706   13.5138 C.ar    1  UNL1        0.0414
     28 C          62.7189   80.2920   12.1942 C.ar    1  UNL1        0.1034
     29 N          62.6369   81.7707   11.9562 N.ar    1  UNL1       -0.2121
@<TRIPOS>BOND
     1     8     9    1
     2     9    10    1
     3     9    11    1
     4     9     2    1
     5     2     3   ar
     6     3     4   ar
     7     4     5   ar
     8     5     1    1
     9     1    12    1
    10    12    13   ar
    11    13    14   ar
    12    14    15   ar
    13    15    16   ar
    14    16    17   ar
    15     1    18    1
    16    18    19    1
    17    19    20    1
    18    20    21    1
    19    21    24    1
    20    24    25   ar
    21    25    26   ar
    22    26    27   ar
    23    27    28   ar
    24    28    29   ar
    25    21    22    1
    26    22    23    1
    27     5     6   ar
    28     6     7   ar
    29     7     2   ar
    30    17    12   ar
    31    23    18    1
    32    29    24   ar
@<TRIPOS>MOLECULE
*****
 29 32 0 0 0
SMALL
GASTEIGER

@<TRIPOS>ATOM
      1 N          62.3726   88.7478   12.1509 N.pl3   1  UNL1       -0.2872
      2 C          63.0098   84.4354   11.0339 C.ar    1  UNL1        0.0715
      3 C          63.3248   84.9047   12.4233 C.ar    1  UNL1        0.0051
      4 C          63.1124   86.3422   12.7957 C.ar    1  UNL1        0.0148
      5 C          62.5850   87.3103   11.7786 C.ar    1  UNL1        0.0515
      6 C          62.2700   86.8410   10.3892 C.ar    1  UNL1        0.0148
      7 C          62.4824   85.4036   10.0169 C.ar    1  UNL1        0.0051
      8 F          63.4346   81.5605   10.2893 F       1  UNL1       -0.1659
      9 C          63.2222   82.9980   10.6616 C.3     1  UNL1        0.4186
     10 F          64.1748   83.4184    9.5819 F       1  UNL1       -0.1659
     11 F          62.2697   82.5775   11.7414 F       1  UNL1       -0.1659
     12 C          61.0324   89.3872   11.9394 C.ar    1  UNL1        0.0710
     13 C          59.8568   88.9556   12.7650 C.ar    1  UNL1        0.0180
     14 C          58.5164   89.5951   12.5534 C.ar    1  UNL1        0.0220
     15 C          58.3518   90.6660   11.5162 C.ar    1  UNL1        0.0990
     16 N          59.5274   91.0976   10.6905 N.ar    1  UNL1       -0.2410
     17 C          60.8676   90.4582   10.9021 C.ar    1  UNL1        0.1136
     18 C          63.5005   89.5458   12.7348 C.3     1  UNL1        0.0807
     19 C          64.1143   89.1332   14.0398 C.3     1  UNL1        0.0416
     20 C          65.2422   89.9312   14.6237 C.3     1  UNL1        0.0953
     21 N          65.7563   91.1419   13.9027 N.pl3   1  UNL1       -0.2781
     22 C          65.1425   91.5546   12.5977 C.3     1  UNL1        0.0953
     23 C          64.0146   90.7565   12.0138 C.3     1  UNL1        0.0416
     24 C          66.8842   91.9400   14.4866 C.ar    1  UNL1        0.2202
     25 N          66.6555   92.7785   15.7091 N.ar    1  UNL1       -0.2121
     26 C          67.7834   93.5765   16.2930 C.ar    1  UNL1        0.1034
     27 C          69.1400   93.5360   15.6544 C.ar    1  UNL1        0.0414
     28 C          69.3688   92.6975   14.4319 C.ar    1  UNL1        0.1034
     29 N          68.2409   91.8995   13.8481 N.ar    1  UNL1       -0.2121
@<TRIPOS>BOND
     1     8     9    1
     2     9    10    1
     3     9    11    1
     4     9     2    1
     5     2     3   ar
     6     3     4   ar
     7     4     5   ar
     8     5     1    1
     9     1    12    1
    10    12    13   ar
    11    13    14   ar
    12    14    15   ar
    13    15    16   ar
    14    16    17   ar
    15     1    18    1
    16    18    19    1
    17    19    20    1
    18    20    21    1
    19    21    24    1
    20    24    25   ar
    21    25    26   ar
    22    26    27   ar
    23    27    28   ar
    24    28    29   ar
    25    21    22    1
    26    22    23    1
    27     5     6   ar
    28     6     7   ar
    29     7     2   ar
    30    17    12   ar
    31    23    18    1
    32    29    24   ar
@<TRIPOS>MOLECULE
*****
 29 32 0 0 0
SMALL
GASTEIGER

@<TRIPOS>ATOM
      1 N          60.8438   94.1347   -2.5257 N.pl3   1  UNL1       -0.2872
      2 C          62.3372   92.4738    1.3808 C.ar    1  UNL1        0.0715
      3 C          61.0959   91.9127    0.7529 C.ar    1  UNL1        0.0051
      4 C          60.5981   92.4664   -0.5493 C.ar    1  UNL1        0.0148
      5 C          61.3416   93.5811   -1.2235 C.ar    1  UNL1        0.0515
      6 C          62.5829   94.1421   -0.5956 C.ar    1  UNL1        0.0148
      7 C          63.0807   93.5885    0.7066 C.ar    1  UNL1        0.0051
      8 F          63.3329   91.3666    3.9852 F       1  UNL1       -0.1659
      9 C          62.8350   91.9202    2.6830 C.3     1  UNL1        0.4186
     10 F          61.4763   92.1186    3.2868 F       1  UNL1       -0.1659
     11 F          64.1937   91.7218    2.0792 F       1  UNL1       -0.1659
     12 C          61.7971   94.3460   -3.6643 C.ar    1  UNL1        0.0710
     13 C          62.8397   93.3121   -3.9713 C.ar    1  UNL1        0.0180
     14 C          63.7931   93.5235   -5.1099 C.ar    1  UNL1        0.0220
     15 C          63.7039   94.7687   -5.9415 C.ar    1  UNL1        0.0990
     16 N          62.6614   95.8026   -5.6345 N.ar    1  UNL1       -0.2410
     17 C          61.7080   95.5912   -4.4959 C.ar    1  UNL1        0.1136
     18 C          59.3926   94.4770   -2.6893 C.3     1  UNL1        0.0807
     19 C          58.5018   93.5941   -3.5123 C.3     1  UNL1        0.0416
     20 C          57.0506   93.9364   -3.6759 C.3     1  UNL1        0.0953
     21 N          56.4901   95.1616   -3.0166 N.pl3   1  UNL1       -0.2781
     22 C          57.3807   96.0445   -2.1937 C.3     1  UNL1        0.0953
     23 C          58.8320   95.7022   -2.0301 C.3     1  UNL1        0.0416
     24 C          55.0388   95.5039   -3.1803 C.ar    1  UNL1        0.2202
     25 N          54.1067   95.3983   -2.0098 N.ar    1  UNL1       -0.2121
     26 C          52.6555   95.7406   -2.1735 C.ar    1  UNL1        0.1034
     27 C          52.1364   96.1885   -3.5076 C.ar    1  UNL1        0.0414
     28 C          53.0685   96.2941   -4.6781 C.ar    1  UNL1        0.1034
     29 N          54.5197   95.9518   -4.5144 N.ar    1  UNL1       -0.2121
@<TRIPOS>BOND
     1     8     9    1
     2     9    10    1
     3     9    11    1
     4     9     2    1
     5     2     3   ar
     6     3     4   ar
     7     4     5   ar
     8     5     1    1
     9     1    12    1
    10    12    13   ar
    11    13    14   ar
    12    14    15   ar
    13    15    16   ar
    14    16    17   ar
    15     1    18    1
    16    18    19    1
    17    19    20    1
    18    20    21    1
    19    21    24    1
    20    24    25   ar
    21    25    26   ar
    22    26    27   ar
    23    27    28   ar
    24    28    29   ar
    25    21    22    1
    26    22    23    1
    27     5     6   ar
    28     6     7   ar
    29     7     2   ar
    30    17    12   ar
    31    23    18    1
    32    29    24   ar
@<TRIPOS>MOLECULE
*****
 29 32 0 0 0
SMALL
GASTEIGER

@<TRIPOS>ATOM
      1 N          62.0943   93.8814   -1.7055 N.pl3   1  UNL1       -0.2872
      2 C          64.9060   93.9152   -5.2188 C.ar    1  UNL1        0.0715
      3 C          64.3935   95.2076   -4.6559 C.ar    1  UNL1        0.0051
      4 C          63.4563   95.1963   -3.4848 C.ar    1  UNL1        0.0148
      5 C          63.0315   93.8927   -2.8766 C.ar    1  UNL1        0.0515
      6 C          63.5440   92.6002   -3.4396 C.ar    1  UNL1        0.0148
      7 C          64.4812   92.6115   -4.6106 C.ar    1  UNL1        0.0051
      8 F          66.7805   93.9377   -7.5610 F       1  UNL1       -0.1659
      9 C          65.8432   93.9264   -6.3899 C.3     1  UNL1        0.4186
     10 F          66.0614   95.3984   -6.2011 F       1  UNL1       -0.1659
     11 F          65.6250   92.4544   -6.5787 F       1  UNL1       -0.1659
     12 C          62.5936   93.4804   -0.3492 C.ar    1  UNL1        0.0710
     13 C          61.7079   92.6984    0.5751 C.ar    1  UNL1        0.0180
     14 C          62.2073   92.2974    1.9315 C.ar    1  UNL1        0.0220
     15 C          63.5922   92.6783    2.3637 C.ar    1  UNL1        0.0990
     16 N          64.4779   93.4603    1.4395 N.ar    1  UNL1       -0.2410
     17 C          63.9786   93.8613    0.0831 C.ar    1  UNL1        0.1136
     18 C          60.6577   94.2712   -1.8908 C.3     1  UNL1        0.0807
     19 C          60.1068   95.4680   -1.1737 C.3     1  UNL1        0.0416
     20 C          58.6703   95.8578   -1.3590 C.3     1  UNL1        0.0953
     21 N          57.7846   95.0508   -2.2614 N.pl3   1  UNL1       -0.2781
     22 C          58.3354   93.8540   -2.9785 C.3     1  UNL1        0.0953
     23 C          59.7720   93.4642   -2.7932 C.3     1  UNL1        0.0416
     24 C          56.3479   95.4406   -2.4467 C.ar    1  UNL1        0.2202
     25 N          55.5020   95.7758   -1.2542 N.ar    1  UNL1       -0.2121
     26 C          54.0655   96.1656   -1.4396 C.ar    1  UNL1        0.1034
     27 C          53.4749   96.2202   -2.8173 C.ar    1  UNL1        0.0414
     28 C          54.3208   95.8849   -4.0098 C.ar    1  UNL1        0.1034
     29 N          55.7574   95.4951   -3.8244 N.ar    1  UNL1       -0.2121
@<TRIPOS>BOND
     1     8     9    1
     2     9    10    1
     3     9    11    1
     4     9     2    1
     5     2     3   ar
     6     3     4   ar
     7     4     5   ar
     8     5     1    1
     9     1    12    1
    10    12    13   ar
    11    13    14   ar
    12    14    15   ar
    13    15    16   ar
    14    16    17   ar
    15     1    18    1
    16    18    19    1
    17    19    20    1
    18    20    21    1
    19    21    24    1
    20    24    25   ar
    21    25    26   ar
    22    26    27   ar
    23    27    28   ar
    24    28    29   ar
    25    21    22    1
    26    22    23    1
    27     5     6   ar
    28     6     7   ar
    29     7     2   ar
    30    17    12   ar
    31    23    18    1
    32    29    24   ar
