@<TRIPOS>MOLECULE
*****
 32 35 0 0 0
SMALL
GASTEIGER

@<TRIPOS>ATOM
      1 C          65.2391   93.6073   10.3562 C.3     1  UNL1        0.2160
      2 N          64.9986   92.5248   11.3664 N.am    1  UNL1       -0.1416
      3 C          63.8761   91.5302   11.3426 C.2     1  UNL1        0.3314
      4 O          62.7969   91.4433   10.3044 O.2     1  UNL1       -0.2520
      5 C          64.0222   90.6377   12.5392 C.3     1  UNL1        0.2669
      6 N          65.2350   91.0807   13.3026 N.2     1  UNL1       -0.0890
      7 C          65.8385   92.2470   12.5777 C.2     1  UNL1        0.3741
      8 N          67.0663   93.0029   12.9916 N.pl3   1  UNL1       -0.2512
      9 H          67.5522   92.7436   13.8076 H       1  UNL1        0.2412
     10 H          67.3861   93.7583   12.4472 H       1  UNL1        0.2412
     11 C          62.7859   89.9792   12.0026 C.ar    1  UNL1        0.0281
     12 C          61.4409   90.3439   12.5576 C.ar    1  UNL1        0.0021
     13 C          60.2045   89.6855   12.0209 C.ar    1  UNL1        0.0301
     14 C          60.3131   88.6624   10.9293 C.ar    1  UNL1        0.1477
     15 F          59.0768   88.0041   10.3927 F       1  UNL1       -0.2035
     16 C          61.6581   88.2978   10.3743 C.ar    1  UNL1        0.0689
     17 C          62.8946   88.9562   10.9110 C.ar    1  UNL1        0.0103
     18 C          61.7668   87.2748    9.2828 C.1     1  UNL1       -0.0622
     19 C          61.8755   86.2518    8.1912 C.1     1  UNL1       -0.0874
     20 C          61.9842   85.2287    7.0995 C.3     1  UNL1        0.0645
     21 C          62.8077   84.5005    6.0790 C.3     1  UNL1        0.0140
     22 C          61.3489   84.1851    6.2294 C.3     1  UNL1        0.0140
     23 C          63.9098   89.6074   13.6237 C.ar    1  UNL1        0.0275
     24 C          64.0918   88.1542   13.2995 C.ar    1  UNL1        0.0029
     25 C          63.9794   87.1241   14.3839 C.ar    1  UNL1        0.0369
     26 C          63.6850   87.5471   15.7926 C.ar    1  UNL1        0.1443
     27 C          63.5031   89.0002   16.1169 C.ar    1  UNL1        0.0369
     28 C          63.6155   90.0304   15.0324 C.ar    1  UNL1        0.0029
     29 O          63.5726   86.5168   16.8771 O.3     1  UNL1       -0.4236
     30 C          62.3962   86.5325   17.8075 C.3     1  UNL1        0.5087
     31 F          61.0136   86.3037   17.2723 F       1  UNL1       -0.1550
     32 F          62.6021   86.7770   19.2730 F       1  UNL1       -0.1550
@<TRIPOS>BOND
     1     1     2    1
     2     2     3   am
     3     3     4    2
     4     3     5    1
     5     5    23    1
     6    23    24   ar
     7    24    25   ar
     8    25    26   ar
     9    26    29    1
    10    29    30    1
    11    30    31    1
    12    30    32    1
    13    26    27   ar
    14    27    28   ar
    15     5    11    1
    16    11    12   ar
    17    12    13   ar
    18    13    14   ar
    19    14    15    1
    20    14    16   ar
    21    16    18    1
    22    18    19    3
    23    19    20    1
    24    20    21    1
    25    21    22    1
    26    16    17   ar
    27     5     6    1
    28     6     7    2
    29     7     8    1
    30     7     2    1
    31    28    23   ar
    32    17    11   ar
    33    22    20    1
    34     8     9    1
    35     8    10    1
@<TRIPOS>MOLECULE
*****
 32 35 0 0 0
SMALL
GASTEIGER

@<TRIPOS>ATOM
      1 C          65.6663   93.6348   10.2212 C.3     1  UNL1        0.2160
      2 N          65.2835   92.7657   11.3822 N.am    1  UNL1       -0.1416
      3 C          64.2549   91.6740   11.3649 C.2     1  UNL1        0.3314
      4 O          63.4285   91.2599   10.1835 O.2     1  UNL1       -0.2520
      5 C          64.1978   91.0692   12.7363 C.3     1  UNL1        0.2669
      6 N          65.1910   91.7871   13.6012 N.2     1  UNL1       -0.0890
      7 C          65.8620   92.8356   12.7643 C.2     1  UNL1        0.3741
      8 N          66.9250   93.7869   13.2281 N.pl3   1  UNL1       -0.2512
      9 H          67.2413   93.7554   14.1599 H       1  UNL1        0.2412
     10 H          67.3063   94.4429   12.6008 H       1  UNL1        0.2412
     11 C          63.1466   90.1863   12.1317 C.ar    1  UNL1        0.0281
     12 C          61.8663   90.7825   11.6265 C.ar    1  UNL1        0.0021
     13 C          60.8151   89.8996   11.0218 C.ar    1  UNL1        0.0301
     14 C          61.0443   88.4205   10.9225 C.ar    1  UNL1        0.1477
     15 F          59.9931   87.5377   10.3179 F       1  UNL1       -0.2035
     16 C          62.3246   87.8243   11.4277 C.ar    1  UNL1        0.0689
     17 C          63.3758   88.7073   12.0324 C.ar    1  UNL1        0.0103
     18 C          62.5538   86.3454   11.3284 C.1     1  UNL1       -0.0622
     19 C          62.7830   84.8663   11.2290 C.1     1  UNL1       -0.0874
     20 C          63.0122   83.3872   11.1297 C.3     1  UNL1        0.0645
     21 C          62.7747   81.9984   11.6443 C.3     1  UNL1        0.0140
     22 C          63.6466   82.2143   10.4429 C.3     1  UNL1        0.0140
     23 C          63.9208   90.2798   13.9814 C.ar    1  UNL1        0.0275
     24 C          64.2428   88.8156   14.0282 C.ar    1  UNL1        0.0029
     25 C          63.9659   88.0262   15.2733 C.ar    1  UNL1        0.0369
     26 C          63.3670   88.7011   16.4715 C.ar    1  UNL1        0.1443
     27 C          63.0450   90.1654   16.4247 C.ar    1  UNL1        0.0369
     28 C          63.3219   90.9547   15.1797 C.ar    1  UNL1        0.0029
     29 O          63.0901   87.9117   17.7166 O.3     1  UNL1       -0.4236
     30 C          62.7253   86.4600   17.6187 C.3     1  UNL1        0.5087
     31 F          61.2866   86.0551   17.4913 F       1  UNL1       -0.1550
     32 F          63.7993   85.4133   17.6482 F       1  UNL1       -0.1550
@<TRIPOS>BOND
     1     1     2    1
     2     2     3   am
     3     3     4    2
     4     3     5    1
     5     5    23    1
     6    23    24   ar
     7    24    25   ar
     8    25    26   ar
     9    26    29    1
    10    29    30    1
    11    30    31    1
    12    30    32    1
    13    26    27   ar
    14    27    28   ar
    15     5    11    1
    16    11    12   ar
    17    12    13   ar
    18    13    14   ar
    19    14    15    1
    20    14    16   ar
    21    16    18    1
    22    18    19    3
    23    19    20    1
    24    20    21    1
    25    21    22    1
    26    16    17   ar
    27     5     6    1
    28     6     7    2
    29     7     8    1
    30     7     2    1
    31    28    23   ar
    32    17    11   ar
    33    22    20    1
    34     8     9    1
    35     8    10    1
@<TRIPOS>MOLECULE
*****
 32 35 0 0 0
SMALL
GASTEIGER

@<TRIPOS>ATOM
      1 C          62.9663   84.2725    7.4933 C.3     1  UNL1        0.2160
      2 N          63.0427   84.4737    8.9778 N.am    1  UNL1       -0.1416
      3 C          62.5917   85.6926    9.7267 C.2     1  UNL1        0.3314
      4 O          61.9851   86.9243    9.1226 O.2     1  UNL1       -0.2520
      5 C          62.8538   85.4634   11.1857 C.3     1  UNL1        0.2669
      6 N          63.4668   84.1030   11.3385 N.2     1  UNL1       -0.0890
      7 C          63.5835   83.4913    9.9739 C.2     1  UNL1        0.3741
      8 N          64.1429   82.1352    9.6605 N.pl3   1  UNL1       -0.2512
      9 H          64.4754   81.5600   10.3869 H       1  UNL1        0.2412
     10 H          64.1775   81.8204    8.7283 H       1  UNL1        0.2412
     11 C          62.2701   86.8360   11.3449 C.ar    1  UNL1        0.0281
     12 C          60.7818   87.0174   11.3904 C.ar    1  UNL1        0.0021
     13 C          60.1981   88.3900   11.5496 C.ar    1  UNL1        0.0301
     14 C          61.1026   89.5812   11.6633 C.ar    1  UNL1        0.1477
     15 F          60.5189   90.9537   11.8225 F       1  UNL1       -0.2035
     16 C          62.5909   89.3998   11.6178 C.ar    1  UNL1        0.0689
     17 C          63.1747   88.0272   11.4586 C.ar    1  UNL1        0.0103
     18 C          63.4954   90.5909   11.7315 C.1     1  UNL1       -0.0622
     19 C          64.4000   91.7820   11.8453 C.1     1  UNL1       -0.0874
     20 C          65.3046   92.9732   11.9590 C.3     1  UNL1        0.0645
     21 C          65.9473   94.1799   11.3418 C.3     1  UNL1        0.0140
     22 C          66.2287   93.8295   12.7730 C.3     1  UNL1        0.0140
     23 C          62.9939   85.5213   12.6781 C.ar    1  UNL1        0.0275
     24 C          62.2447   84.5487   13.5400 C.ar    1  UNL1        0.0029
     25 C          62.3848   84.6067   15.0322 C.ar    1  UNL1        0.0369
     26 C          63.2740   85.6372   15.6627 C.ar    1  UNL1        0.1443
     27 C          64.0231   86.6097   14.8008 C.ar    1  UNL1        0.0369
     28 C          63.8830   86.5518   13.3085 C.ar    1  UNL1        0.0029
     29 O          63.4141   85.6950   17.1550 O.3     1  UNL1       -0.4236
     30 C          62.9400   86.9035   17.9065 C.3     1  UNL1        0.5087
     31 F          62.7602   88.2093   17.1904 F       1  UNL1       -0.1550
     32 F          62.6456   86.8064   19.3741 F       1  UNL1       -0.1550
@<TRIPOS>BOND
     1     1     2    1
     2     2     3   am
     3     3     4    2
     4     3     5    1
     5     5    23    1
     6    23    24   ar
     7    24    25   ar
     8    25    26   ar
     9    26    29    1
    10    29    30    1
    11    30    31    1
    12    30    32    1
    13    26    27   ar
    14    27    28   ar
    15     5    11    1
    16    11    12   ar
    17    12    13   ar
    18    13    14   ar
    19    14    15    1
    20    14    16   ar
    21    16    18    1
    22    18    19    3
    23    19    20    1
    24    20    21    1
    25    21    22    1
    26    16    17   ar
    27     5     6    1
    28     6     7    2
    29     7     8    1
    30     7     2    1
    31    28    23   ar
    32    17    11   ar
    33    22    20    1
    34     8     9    1
    35     8    10    1
@<TRIPOS>MOLECULE
*****
 32 35 0 0 0
SMALL
GASTEIGER

@<TRIPOS>ATOM
      1 C          59.1113   89.2591    7.2014 C.3     1  UNL1        0.2160
      2 N          59.8746   88.4276    8.1893 N.am    1  UNL1       -0.1416
      3 C          60.6845   88.9475    9.3398 C.2     1  UNL1        0.3314
      4 O          60.8733   90.3902    9.7045 O.2     1  UNL1       -0.2520
      5 C          61.2725   87.7714   10.0616 C.3     1  UNL1        0.2669
      6 N          60.8260   86.5247    9.3572 N.2     1  UNL1       -0.0890
      7 C          59.9621   86.9302    8.2000 C.2     1  UNL1        0.3741
      8 N          59.3016   86.0014    7.2248 N.pl3   1  UNL1       -0.2512
      9 H          59.4190   85.0281    7.3150 H       1  UNL1        0.2412
     10 H          58.7506   86.3651    6.4944 H       1  UNL1        0.2412
     11 C          61.8680   88.8181   10.9560 C.ar    1  UNL1        0.0281
     12 C          61.3654   88.9788   12.3602 C.ar    1  UNL1        0.0021
     13 C          61.9609   90.0255   13.2547 C.ar    1  UNL1        0.0301
     14 C          63.0588   90.9114   12.7450 C.ar    1  UNL1        0.1477
     15 F          63.6542   91.9579   13.6395 F       1  UNL1       -0.2035
     16 C          63.5614   90.7506   11.3409 C.ar    1  UNL1        0.0689
     17 C          62.9659   89.7039   10.4464 C.ar    1  UNL1        0.0103
     18 C          64.6593   91.6364   10.8312 C.1     1  UNL1       -0.0622
     19 C          65.7572   92.5222   10.3215 C.1     1  UNL1       -0.0874
     20 C          66.8552   93.4080    9.8118 C.3     1  UNL1        0.0645
     21 C          67.4060   94.7804    9.5606 C.3     1  UNL1        0.0140
     22 C          68.2061   93.5700    9.1803 C.3     1  UNL1        0.0140
     23 C          61.9850   86.8142   10.9705 C.ar    1  UNL1        0.0275
     24 C          62.8867   87.3351   12.0501 C.ar    1  UNL1        0.0029
     25 C          63.5991   86.3778   12.9589 C.ar    1  UNL1        0.0369
     26 C          63.4100   84.8996   12.7881 C.ar    1  UNL1        0.1443
     27 C          62.5083   84.3787   11.7085 C.ar    1  UNL1        0.0369
     28 C          61.7958   85.3360   10.7997 C.ar    1  UNL1        0.0029
     29 O          64.1225   83.9423   13.6970 O.3     1  UNL1       -0.4236
     30 C          63.4890   82.6288   14.0479 C.3     1  UNL1        0.5087
     31 F          62.2574   82.5948   14.9036 F       1  UNL1       -0.1550
     32 F          64.0871   81.3491   13.5433 F       1  UNL1       -0.1550
@<TRIPOS>BOND
     1     1     2    1
     2     2     3   am
     3     3     4    2
     4     3     5    1
     5     5    23    1
     6    23    24   ar
     7    24    25   ar
     8    25    26   ar
     9    26    29    1
    10    29    30    1
    11    30    31    1
    12    30    32    1
    13    26    27   ar
    14    27    28   ar
    15     5    11    1
    16    11    12   ar
    17    12    13   ar
    18    13    14   ar
    19    14    15    1
    20    14    16   ar
    21    16    18    1
    22    18    19    3
    23    19    20    1
    24    20    21    1
    25    21    22    1
    26    16    17   ar
    27     5     6    1
    28     6     7    2
    29     7     8    1
    30     7     2    1
    31    28    23   ar
    32    17    11   ar
    33    22    20    1
    34     8     9    1
    35     8    10    1
@<TRIPOS>MOLECULE
*****
 32 35 0 0 0
SMALL
GASTEIGER

@<TRIPOS>ATOM
      1 C          62.2274   94.2188   -5.3292 C.3     1  UNL1        0.2160
      2 N          61.8668   94.0471   -3.8833 N.am    1  UNL1       -0.1416
      3 C          60.4775   94.0195   -3.3184 C.2     1  UNL1        0.3314
      4 O          59.2049   94.1588   -4.1002 O.2     1  UNL1       -0.2520
      5 C          60.5843   93.8281   -1.8345 C.3     1  UNL1        0.2669
      6 N          62.0395   93.7374   -1.4824 N.2     1  UNL1       -0.0890
      7 C          62.8322   93.8728   -2.7487 C.2     1  UNL1        0.3741
      8 N          64.3276   93.8396   -2.8605 N.pl3   1  UNL1       -0.2512
      9 H          64.8791   93.7199   -2.0538 H       1  UNL1        0.2412
     10 H          64.7577   93.9375   -3.7407 H       1  UNL1        0.2412
     11 C          59.0859   93.8811   -1.8784 C.ar    1  UNL1        0.0281
     12 C          58.3592   95.0516   -1.2853 C.ar    1  UNL1        0.0021
     13 C          56.8607   95.1046   -1.3291 C.ar    1  UNL1        0.0301
     14 C          56.0890   93.9871   -1.9660 C.ar    1  UNL1        0.1477
     15 F          54.5906   94.0402   -2.0098 F       1  UNL1       -0.2035
     16 C          56.8157   92.8166   -2.5591 C.ar    1  UNL1        0.0689
     17 C          58.3142   92.7636   -2.5153 C.ar    1  UNL1        0.0103
     18 C          56.0440   91.6991   -3.1960 C.1     1  UNL1       -0.0622
     19 C          55.2723   90.5816   -3.8329 C.1     1  UNL1       -0.0874
     20 C          54.5006   89.4641   -4.4698 C.3     1  UNL1        0.0645
     21 C          53.5319   88.9813   -5.5083 C.3     1  UNL1        0.0140
     22 C          54.1328   88.0114   -4.5345 C.3     1  UNL1        0.0140
     23 C          60.3778   93.6478   -0.3598 C.ar    1  UNL1        0.0275
     24 C          60.7175   94.7607    0.5867 C.ar    1  UNL1        0.0029
     25 C          60.5110   94.5803    2.0614 C.ar    1  UNL1        0.0369
     26 C          59.9647   93.2871    2.5896 C.ar    1  UNL1        0.1443
     27 C          59.6249   92.1741    1.6431 C.ar    1  UNL1        0.0369
     28 C          59.8314   92.3545    0.1684 C.ar    1  UNL1        0.0029
     29 O          59.7581   93.1068    4.0644 O.3     1  UNL1       -0.4236
     30 C          59.0265   91.9020    4.5775 C.3     1  UNL1        0.5087
     31 F          59.7896   90.7675    5.1944 F       1  UNL1       -0.1550
     32 F          57.5317   91.8318    4.4737 F       1  UNL1       -0.1550
@<TRIPOS>BOND
     1     1     2    1
     2     2     3   am
     3     3     4    2
     4     3     5    1
     5     5    23    1
     6    23    24   ar
     7    24    25   ar
     8    25    26   ar
     9    26    29    1
    10    29    30    1
    11    30    31    1
    12    30    32    1
    13    26    27   ar
    14    27    28   ar
    15     5    11    1
    16    11    12   ar
    17    12    13   ar
    18    13    14   ar
    19    14    15    1
    20    14    16   ar
    21    16    18    1
    22    18    19    3
    23    19    20    1
    24    20    21    1
    25    21    22    1
    26    16    17   ar
    27     5     6    1
    28     6     7    2
    29     7     8    1
    30     7     2    1
    31    28    23   ar
    32    17    11   ar
    33    22    20    1
    34     8     9    1
    35     8    10    1
@<TRIPOS>MOLECULE
*****
 32 35 0 0 0
SMALL
GASTEIGER

@<TRIPOS>ATOM
      1 C          62.3977   78.4358   11.0795 C.3     1  UNL1        0.2160
      2 N          62.6537   79.6492   11.9234 N.am    1  UNL1       -0.1416
      3 C          62.8103   81.0544   11.4226 C.2     1  UNL1        0.3314
      4 O          62.7385   81.4929    9.9900 O.2     1  UNL1       -0.2520
      5 C          63.0515   81.9440   12.6060 C.3     1  UNL1        0.2669
      6 N          63.0438   81.0886   13.8382 N.2     1  UNL1       -0.0890
      7 C          62.7980   79.6703   13.4163 C.2     1  UNL1        0.3741
      8 N          62.7116   78.4818   14.3274 N.pl3   1  UNL1       -0.2512
      9 H          62.8203   78.5975   15.2990 H       1  UNL1        0.2412
     10 H          62.5462   77.5861   13.9537 H       1  UNL1        0.2412
     11 C          63.1121   83.0330   11.5763 C.ar    1  UNL1        0.0281
     12 C          63.9620   82.8612   10.3522 C.ar    1  UNL1        0.0021
     13 C          64.0227   83.9502    9.3224 C.ar    1  UNL1        0.0301
     14 C          63.2336   85.2110    9.5166 C.ar    1  UNL1        0.1477
     15 F          63.2943   86.2999    8.4869 F       1  UNL1       -0.2035
     16 C          62.3837   85.3828   10.7407 C.ar    1  UNL1        0.0689
     17 C          62.3230   84.2938   11.7705 C.ar    1  UNL1        0.0103
     18 C          61.5947   86.6435   10.9349 C.1     1  UNL1       -0.0622
     19 C          60.8055   87.9043   11.1292 C.1     1  UNL1       -0.0874
     20 C          60.0164   89.1650   11.3235 C.3     1  UNL1        0.0645
     21 C          59.6853   90.5675   10.9070 C.3     1  UNL1        0.0140
     22 C          58.9807   89.9463   12.0764 C.3     1  UNL1        0.0140
     23 C          63.3053   83.0614   13.5741 C.ar    1  UNL1        0.0275
     24 C          62.2742   83.4074   14.6071 C.ar    1  UNL1        0.0029
     25 C          62.5281   84.5247   15.5752 C.ar    1  UNL1        0.0369
     26 C          63.8130   85.2960   15.5102 C.ar    1  UNL1        0.1443
     27 C          64.8440   84.9500   14.4771 C.ar    1  UNL1        0.0369
     28 C          64.5901   83.8326   13.5091 C.ar    1  UNL1        0.0029
     29 O          64.0668   86.4134   16.4783 O.3     1  UNL1       -0.4236
     30 C          62.9215   87.0419   17.2152 C.3     1  UNL1        0.5087
     31 F          62.4273   88.4005   16.8150 F       1  UNL1       -0.1550
     32 F          62.2702   86.3120   18.3523 F       1  UNL1       -0.1550
@<TRIPOS>BOND
     1     1     2    1
     2     2     3   am
     3     3     4    2
     4     3     5    1
     5     5    23    1
     6    23    24   ar
     7    24    25   ar
     8    25    26   ar
     9    26    29    1
    10    29    30    1
    11    30    31    1
    12    30    32    1
    13    26    27   ar
    14    27    28   ar
    15     5    11    1
    16    11    12   ar
    17    12    13   ar
    18    13    14   ar
    19    14    15    1
    20    14    16   ar
    21    16    18    1
    22    18    19    3
    23    19    20    1
    24    20    21    1
    25    21    22    1
    26    16    17   ar
    27     5     6    1
    28     6     7    2
    29     7     8    1
    30     7     2    1
    31    28    23   ar
    32    17    11   ar
    33    22    20    1
    34     8     9    1
    35     8    10    1
