@<TRIPOS>MOLECULE
*****
 31 34 0 0 0
SMALL
GASTEIGER

@<TRIPOS>ATOM
      1 N          64.3808   91.6727   11.6497 N.am    1  UNL1       -0.2723
      2 C          65.4761   92.6972   11.6779 C.2     1  UNL1        0.2685
      3 O          65.7498   93.5361   10.4650 O.2     1  UNL1       -0.2682
      4 N          63.2645   88.2518   16.5957 N.3     1  UNL1       -0.2727
      5 C          63.7440   87.7495   15.2661 C.3     1  UNL1        0.0721
      6 C          63.8827   88.9275   14.3480 C.3     1  UNL1        0.0190
      7 C          64.2647   89.3452   12.9589 C.3     1  UNL1        0.0213
      8 C          64.1071   90.8337   12.8626 C.3     1  UNL1        0.0761
      9 C          63.6276   91.3361   14.1921 C.3     1  UNL1        0.0213
     10 C          63.4889   90.1580   15.1102 C.3     1  UNL1        0.0190
     11 C          63.1069   89.7403   16.4993 C.3     1  UNL1        0.0721
     12 C          62.4203   86.0342   17.6538 C.3     1  UNL1        0.0188
     13 C          62.9908   87.4128   17.8086 C.3     1  UNL1        0.0721
     14 C          66.2976   92.8828   12.9192 C.ar    1  UNL1        0.1535
     15 C          67.4360   92.0120   13.3614 C.ar    1  UNL1        0.1012
     16 N          67.9669   92.5627   14.6516 N.ar    1  UNL1       -0.3057
     17 C          69.1079   92.0009   15.4470 C.3     1  UNL1        0.1321
     18 C          67.1566   93.7739   15.0069 C.ar    1  UNL1        0.1787
     19 N          66.1248   93.9718   13.9362 N.ar    1  UNL1       -0.2192
     20 C          63.5594   91.4871   10.4084 C.3     1  UNL1        0.1204
     21 C          62.4562   90.4711   10.3841 C.ar    1  UNL1       -0.0022
     22 C          61.0943   90.8301   10.9003 C.ar    1  UNL1       -0.0003
     23 C          59.9911   89.8141   10.8759 C.ar    1  UNL1        0.0293
     24 C          60.2498   88.4389   10.3354 C.ar    1  UNL1        0.1440
     25 F          59.1466   87.4229   10.3110 F       1  UNL1       -0.2042
     26 C          61.6116   88.0799    9.8192 C.ar    1  UNL1        0.0985
     27 C          62.7148   89.0960    9.8435 C.ar    1  UNL1        0.0035
     28 C          61.8702   86.7049    9.2786 C.3     1  UNL1        0.4207
     29 F          62.1289   85.3297    8.7380 F       1  UNL1       -0.1658
     30 F          62.6810   86.3781   10.4976 F       1  UNL1       -0.1658
     31 F          61.0595   87.0315    8.0597 F       1  UNL1       -0.1658
@<TRIPOS>BOND
     1    12    13    1
     2    13     4    1
     3     4     5    1
     4     6     5    1
     5     6     7    1
     6     7     8    1
     7     8     1    1
     8     1    20    1
     9    20    21    1
    10    21    22   ar
    11    22    23   ar
    12    23    24   ar
    13    24    25    1
    14    24    26   ar
    15    26    28    1
    16    28    29    1
    17    28    30    1
    18    28    31    1
    19    26    27   ar
    20     1     2   am
    21     2     3    2
    22     2    14    1
    23    14    15   ar
    24    15    16   ar
    25    16    17    1
    26    16    18   ar
    27    18    19   ar
    28     8     9    1
    29    10     9    1
    30    10    11    1
    31    11     4    1
    32    10     6    1
    33    27    21   ar
    34    19    14   ar
@<TRIPOS>MOLECULE
*****
 31 34 0 0 0
SMALL
GASTEIGER

@<TRIPOS>ATOM
      1 N          64.1688   90.5923   14.2637 N.am    1  UNL1       -0.2723
      2 C          65.3533   91.4890   14.0569 C.2     1  UNL1        0.2685
      3 O          66.1822   91.9193   15.2307 O.2     1  UNL1       -0.2682
      4 N          60.7887   88.8375    9.4775 N.3     1  UNL1       -0.2727
      5 C          60.6100   90.0999   10.2677 C.3     1  UNL1        0.0721
      6 C          61.6527   90.1236   11.3458 C.3     1  UNL1        0.0190
      7 C          62.1867   90.9184   12.5004 C.3     1  UNL1        0.0213
      8 C          63.3399   90.1619   13.0900 C.3     1  UNL1        0.0761
      9 C          63.5187   88.8996   12.2998 C.3     1  UNL1        0.0213
     10 C          62.4760   88.8759   11.2218 C.3     1  UNL1        0.0190
     11 C          61.9420   88.0810   10.0672 C.3     1  UNL1        0.0721
     12 C          59.6016   86.9612    8.1284 C.3     1  UNL1        0.0188
     13 C          59.9598   88.4072    8.3038 C.3     1  UNL1        0.0721
     14 C          65.7089   91.9555   12.6763 C.ar    1  UNL1        0.1535
     15 C          67.0762   91.9252   12.0603 C.ar    1  UNL1        0.1012
     16 N          66.9720   92.4851   10.6727 N.ar    1  UNL1       -0.3057
     17 C          68.1012   92.6413    9.6978 C.3     1  UNL1        0.1321
     18 C          65.5402   92.8614   10.4310 C.ar    1  UNL1        0.1787
     19 N          64.7595   92.5341   11.6693 N.ar    1  UNL1       -0.2192
     20 C          63.8133   90.1258   15.6443 C.3     1  UNL1        0.1204
     21 C          63.6337   88.6621   15.9184 C.ar    1  UNL1       -0.0022
     22 C          62.8912   88.2138   17.1423 C.ar    1  UNL1       -0.0003
     23 C          62.7116   86.7500   17.4164 C.ar    1  UNL1        0.0293
     24 C          63.2744   85.7346   16.4666 C.ar    1  UNL1        0.1440
     25 F          63.0948   84.2708   16.7407 F       1  UNL1       -0.2042
     26 C          64.0168   86.1828   15.2427 C.ar    1  UNL1        0.0985
     27 C          64.1964   87.6466   14.9686 C.ar    1  UNL1        0.0035
     28 C          64.5796   85.1674   14.2930 C.3     1  UNL1        0.4207
     29 F          65.1424   84.1518   13.3432 F       1  UNL1       -0.1658
     30 F          65.9645   85.4852   14.7738 F       1  UNL1       -0.1658
     31 F          63.1948   84.8495   13.8122 F       1  UNL1       -0.1658
@<TRIPOS>BOND
     1    12    13    1
     2    13     4    1
     3     4     5    1
     4     6     5    1
     5     6     7    1
     6     7     8    1
     7     8     1    1
     8     1    20    1
     9    20    21    1
    10    21    22   ar
    11    22    23   ar
    12    23    24   ar
    13    24    25    1
    14    24    26   ar
    15    26    28    1
    16    28    29    1
    17    28    30    1
    18    28    31    1
    19    26    27   ar
    20     1     2   am
    21     2     3    2
    22     2    14    1
    23    14    15   ar
    24    15    16   ar
    25    16    17    1
    26    16    18   ar
    27    18    19   ar
    28     8     9    1
    29    10     9    1
    30    10    11    1
    31    11     4    1
    32    10     6    1
    33    27    21   ar
    34    19    14   ar
@<TRIPOS>MOLECULE
*****
 31 34 0 0 0
SMALL
GASTEIGER

@<TRIPOS>ATOM
      1 N          64.2130   84.4705   14.0542 N.am    1  UNL1       -0.2723
      2 C          63.9080   83.2380   14.8529 C.2     1  UNL1        0.2685
      3 O          64.4809   83.0755   16.2296 O.2     1  UNL1       -0.2682
      4 N          61.8769   85.1330    8.4404 N.3     1  UNL1       -0.2727
      5 C          61.3464   85.7596    9.6958 C.3     1  UNL1        0.0721
      6 C          62.2225   85.3293   10.8347 C.3     1  UNL1        0.0190
      7 C          62.4361   85.4506   12.3145 C.3     1  UNL1        0.0213
      8 C          63.6401   84.6330   12.6775 C.3     1  UNL1        0.0761
      9 C          64.1706   84.0063   11.4223 C.3     1  UNL1        0.0213
     10 C          63.2945   84.4367   10.2833 C.3     1  UNL1        0.0190
     11 C          63.0809   84.3154    8.8035 C.3     1  UNL1        0.0721
     12 C          61.7470   84.3875    5.9550 C.3     1  UNL1        0.0188
     13 C          61.3040   85.2955    7.0637 C.3     1  UNL1        0.0721
     14 C          63.0300   82.1679   14.2748 C.ar    1  UNL1        0.1535
     15 C          61.6023   81.9011   14.6492 C.ar    1  UNL1        0.1012
     16 N          61.1156   80.7451   13.8267 N.ar    1  UNL1       -0.3057
     17 C          59.7429   80.1425   13.8779 C.3     1  UNL1        0.1321
     18 C          62.2425   80.2973   12.9438 C.ar    1  UNL1        0.1787
     19 N          63.4258   81.1767   13.2207 N.ar    1  UNL1       -0.2192
     20 C          65.0909   85.5405   14.6323 C.3     1  UNL1        0.1204
     21 C          64.4821   86.8044   15.1635 C.ar    1  UNL1       -0.0022
     22 C          63.7007   86.7800   16.4437 C.ar    1  UNL1       -0.0003
     23 C          63.0919   88.0439   16.9749 C.ar    1  UNL1        0.0293
     24 C          63.2647   89.3320   16.2259 C.ar    1  UNL1        0.1440
     25 F          62.6559   90.5958   16.7571 F       1  UNL1       -0.2042
     26 C          64.0461   89.3563   14.9458 C.ar    1  UNL1        0.0985
     27 C          64.6548   88.0925   14.4146 C.ar    1  UNL1        0.0035
     28 C          64.2188   90.6444   14.1969 C.3     1  UNL1        0.4207
     29 F          64.3915   91.9326   13.4480 F       1  UNL1       -0.1658
     30 F          62.8690   90.4603   13.5689 F       1  UNL1       -0.1658
     31 F          65.5685   90.8285   14.8248 F       1  UNL1       -0.1658
@<TRIPOS>BOND
     1    12    13    1
     2    13     4    1
     3     4     5    1
     4     6     5    1
     5     6     7    1
     6     7     8    1
     7     8     1    1
     8     1    20    1
     9    20    21    1
    10    21    22   ar
    11    22    23   ar
    12    23    24   ar
    13    24    25    1
    14    24    26   ar
    15    26    28    1
    16    28    29    1
    17    28    30    1
    18    28    31    1
    19    26    27   ar
    20     1     2   am
    21     2     3    2
    22     2    14    1
    23    14    15   ar
    24    15    16   ar
    25    16    17    1
    26    16    18   ar
    27    18    19   ar
    28     8     9    1
    29    10     9    1
    30    10    11    1
    31    11     4    1
    32    10     6    1
    33    27    21   ar
    34    19    14   ar
@<TRIPOS>MOLECULE
*****
 31 34 0 0 0
SMALL
GASTEIGER

@<TRIPOS>ATOM
      1 N          61.9357   88.5426   11.5203 N.am    1  UNL1       -0.2723
      2 C          61.3247   88.7876   10.1725 C.2     1  UNL1        0.2685
      3 O          60.9095   90.1740    9.7780 O.2     1  UNL1       -0.2682
      4 N          63.6288   82.8895   13.1288 N.3     1  UNL1       -0.2727
      5 C          62.5232   83.2419   12.1783 C.3     1  UNL1        0.0721
      6 C          62.4574   84.7371   12.0776 C.3     1  UNL1        0.0190
      7 C          61.7334   85.8790   11.4280 C.3     1  UNL1        0.0213
      8 C          62.3509   87.1563   11.9148 C.3     1  UNL1        0.0761
      9 C          63.4564   86.8040   12.8653 C.3     1  UNL1        0.0213
     10 C          63.5223   85.3088   12.9659 C.3     1  UNL1        0.0190
     11 C          64.2462   84.1669   13.6156 C.3     1  UNL1        0.0721
     12 C          63.0604   80.3737   13.4409 C.3     1  UNL1        0.0188
     13 C          64.0440   81.5032   13.5233 C.3     1  UNL1        0.0721
     14 C          61.1289   87.6462    9.2191 C.ar    1  UNL1        0.1535
     15 C          62.2125   86.7877    8.6373 C.ar    1  UNL1        0.1012
     16 N          61.5685   85.7739    7.7387 N.ar    1  UNL1       -0.3057
     17 C          62.2811   84.7141    6.9519 C.3     1  UNL1        0.1321
     18 C          60.0868   86.0059    7.7652 C.ar    1  UNL1        0.1787
     19 N          59.8151   87.1631    8.6801 N.ar    1  UNL1       -0.2192
     20 C          62.1314   89.6840   12.4737 C.3     1  UNL1        0.1204
     21 C          63.3497   90.5522   12.3641 C.ar    1  UNL1       -0.0022
     22 C          63.6263   91.2996   11.0933 C.ar    1  UNL1       -0.0003
     23 C          64.8446   92.1678   10.9838 C.ar    1  UNL1        0.0293
     24 C          65.7863   92.2886   12.1451 C.ar    1  UNL1        0.1440
     25 F          67.0046   93.1567   12.0356 F       1  UNL1       -0.2042
     26 C          65.5097   91.5412   13.4159 C.ar    1  UNL1        0.0985
     27 C          64.2914   90.6730   13.5254 C.ar    1  UNL1        0.0035
     28 C          66.4514   91.6620   14.5771 C.3     1  UNL1        0.4207
     29 F          67.3932   91.7828   15.7384 F       1  UNL1       -0.1658
     30 F          65.3240   92.1437   15.4414 F       1  UNL1       -0.1658
     31 F          67.5789   91.1804   13.7130 F       1  UNL1       -0.1658
@<TRIPOS>BOND
     1    12    13    1
     2    13     4    1
     3     4     5    1
     4     6     5    1
     5     6     7    1
     6     7     8    1
     7     8     1    1
     8     1    20    1
     9    20    21    1
    10    21    22   ar
    11    22    23   ar
    12    23    24   ar
    13    24    25    1
    14    24    26   ar
    15    26    28    1
    16    28    29    1
    17    28    30    1
    18    28    31    1
    19    26    27   ar
    20     1     2   am
    21     2     3    2
    22     2    14    1
    23    14    15   ar
    24    15    16   ar
    25    16    17    1
    26    16    18   ar
    27    18    19   ar
    28     8     9    1
    29    10     9    1
    30    10    11    1
    31    11     4    1
    32    10     6    1
    33    27    21   ar
    34    19    14   ar
@<TRIPOS>MOLECULE
*****
 31 34 0 0 0
SMALL
GASTEIGER

@<TRIPOS>ATOM
      1 N          64.4351   91.7067   11.7659 N.am    1  UNL1       -0.2723
      2 C          65.5308   92.7301   11.8133 C.2     1  UNL1        0.2685
      3 O          65.8158   93.5799   10.6106 O.2     1  UNL1       -0.2682
      4 N          63.2727   88.2415   16.6702 N.3     1  UNL1       -0.2727
      5 C          63.1185   89.7312   16.5866 C.3     1  UNL1        0.0721
      6 C          63.5125   90.1612   15.2047 C.3     1  UNL1        0.0190
      7 C          63.6608   91.3476   14.2989 C.3     1  UNL1        0.0213
      8 C          64.1501   90.8569   12.9686 C.3     1  UNL1        0.0761
      9 C          64.3043   89.3673   13.0521 C.3     1  UNL1        0.0213
     10 C          63.9102   88.9372   14.4341 C.3     1  UNL1        0.0190
     11 C          63.7620   87.7508   15.3399 C.3     1  UNL1        0.0721
     12 C          62.4095   86.0183   17.7009 C.3     1  UNL1        0.0188
     13 C          62.9876   87.3916   17.8730 C.3     1  UNL1        0.0721
     14 C          66.3414   92.9037   13.0635 C.ar    1  UNL1        0.1535
     15 C          67.4393   91.9972   13.5353 C.ar    1  UNL1        0.1012
     16 N          67.9728   92.5475   14.8247 N.ar    1  UNL1       -0.3057
     17 C          69.0802   91.9551   15.6450 C.3     1  UNL1        0.1321
     18 C          67.2046   93.7941   15.1497 C.ar    1  UNL1        0.1787
     19 N          66.1962   94.0143   14.0612 N.ar    1  UNL1       -0.2192
     20 C          63.6246   91.5332   10.5158 C.3     1  UNL1        0.1204
     21 C          62.5860   90.4536   10.4392 C.ar    1  UNL1       -0.0022
     22 C          62.8200   89.2474    9.5786 C.ar    1  UNL1       -0.0003
     23 C          61.7814   88.1679    9.5020 C.ar    1  UNL1        0.0293
     24 C          60.5088   88.2945   10.2859 C.ar    1  UNL1        0.1440
     25 F          59.4702   87.2150   10.2092 F       1  UNL1       -0.2042
     26 C          60.2748   89.5007   11.1463 C.ar    1  UNL1        0.0985
     27 C          61.3134   90.5802   11.2230 C.ar    1  UNL1        0.0035
     28 C          59.0022   89.6273   11.9301 C.3     1  UNL1        0.4207
     29 F          57.7295   89.7538   12.7140 F       1  UNL1       -0.1658
     30 F          58.7993   91.0072   11.3780 F       1  UNL1       -0.1658
     31 F          59.2050   88.2474   12.4822 F       1  UNL1       -0.1658
@<TRIPOS>BOND
     1    12    13    1
     2    13     4    1
     3     4     5    1
     4     6     5    1
     5     6     7    1
     6     7     8    1
     7     8     1    1
     8     1    20    1
     9    20    21    1
    10    21    22   ar
    11    22    23   ar
    12    23    24   ar
    13    24    25    1
    14    24    26   ar
    15    26    28    1
    16    28    29    1
    17    28    30    1
    18    28    31    1
    19    26    27   ar
    20     1     2   am
    21     2     3    2
    22     2    14    1
    23    14    15   ar
    24    15    16   ar
    25    16    17    1
    26    16    18   ar
    27    18    19   ar
    28     8     9    1
    29    10     9    1
    30    10    11    1
    31    11     4    1
    32    10     6    1
    33    27    21   ar
    34    19    14   ar
@<TRIPOS>MOLECULE
*****
 31 34 0 0 0
SMALL
GASTEIGER

@<TRIPOS>ATOM
      1 N          62.0557   87.3095   10.5445 N.am    1  UNL1       -0.2723
      2 C          60.5797   87.4768   10.3363 C.2     1  UNL1        0.2685
      3 O          59.8476   86.5686    9.3933 O.2     1  UNL1       -0.2682
      4 N          65.0409   91.0128   14.3898 N.3     1  UNL1       -0.2727
      5 C          64.4896   91.3942   13.0480 C.3     1  UNL1        0.0721
      6 C          63.8395   90.1809   12.4519 C.3     1  UNL1        0.0190
      7 C          63.0970   89.6668   11.2542 C.3     1  UNL1        0.0213
      8 C          62.7878   88.2177   11.4875 C.3     1  UNL1        0.0761
      9 C          63.3391   87.8362   12.8293 C.3     1  UNL1        0.0213
     10 C          63.9891   89.0495   13.4253 C.3     1  UNL1        0.0190
     11 C          64.7316   89.5637   14.6230 C.3     1  UNL1        0.0721
     12 C          67.2673   92.0299   15.2608 C.3     1  UNL1        0.0188
     13 C          65.7730   91.9209   15.3328 C.3     1  UNL1        0.0721
     14 C          59.8357   88.5523   11.0711 C.ar    1  UNL1        0.1535
     15 C          59.6780   89.9763   10.6270 C.ar    1  UNL1        0.1012
     16 N          58.8637   90.6967   11.6604 N.ar    1  UNL1       -0.3057
     17 C          58.4649   92.1420   11.6183 C.3     1  UNL1        0.1321
     18 C          58.5181   89.7179   12.7432 C.ar    1  UNL1        0.1787
     19 N          59.1189   88.3925   12.3790 N.ar    1  UNL1       -0.2192
     20 C          62.7996   86.2341    9.8097 C.3     1  UNL1        0.1204
     21 C          63.0738   84.9201   10.4794 C.ar    1  UNL1       -0.0022
     22 C          63.7187   83.8060    9.7093 C.ar    1  UNL1       -0.0003
     23 C          63.9929   82.4921   10.3789 C.ar    1  UNL1        0.0293
     24 C          63.6222   82.2923   11.8186 C.ar    1  UNL1        0.1440
     25 F          63.8964   80.9784   12.4883 F       1  UNL1       -0.2042
     26 C          62.9773   83.4064   12.5886 C.ar    1  UNL1        0.0985
     27 C          62.7031   84.7203   11.9190 C.ar    1  UNL1        0.0035
     28 C          62.6066   83.2065   14.0283 C.3     1  UNL1        0.4207
     29 F          62.2359   83.0067   15.4680 F       1  UNL1       -0.1658
     30 F          61.6382   82.1325   13.6299 F       1  UNL1       -0.1658
     31 F          63.5750   84.2805   14.4267 F       1  UNL1       -0.1658
@<TRIPOS>BOND
     1    12    13    1
     2    13     4    1
     3     4     5    1
     4     6     5    1
     5     6     7    1
     6     7     8    1
     7     8     1    1
     8     1    20    1
     9    20    21    1
    10    21    22   ar
    11    22    23   ar
    12    23    24   ar
    13    24    25    1
    14    24    26   ar
    15    26    28    1
    16    28    29    1
    17    28    30    1
    18    28    31    1
    19    26    27   ar
    20     1     2   am
    21     2     3    2
    22     2    14    1
    23    14    15   ar
    24    15    16   ar
    25    16    17    1
    26    16    18   ar
    27    18    19   ar
    28     8     9    1
    29    10     9    1
    30    10    11    1
    31    11     4    1
    32    10     6    1
    33    27    21   ar
    34    19    14   ar
@<TRIPOS>MOLECULE
*****
 31 34 0 0 0
SMALL
GASTEIGER

@<TRIPOS>ATOM
      1 N          62.5295   89.0253   12.2675 N.am    1  UNL1       -0.2723
      2 C          61.9210   89.4177   10.9539 C.2     1  UNL1        0.2685
      3 O          61.6324   90.8604   10.6620 O.2     1  UNL1       -0.2682
      4 N          63.7063   83.1423   13.4575 N.3     1  UNL1       -0.2727
      5 C          62.6917   83.6584   12.4807 C.3     1  UNL1        0.0721
      6 C          62.7400   85.1573   12.5107 C.3     1  UNL1        0.0190
      7 C          62.1428   86.4027   11.9256 C.3     1  UNL1        0.0213
      8 C          62.8181   87.5826   12.5593 C.3     1  UNL1        0.0761
      9 C          63.8327   87.0665   13.5361 C.3     1  UNL1        0.0213
     10 C          63.7844   85.5676   13.5061 C.3     1  UNL1        0.0190
     11 C          64.3816   84.3222   14.0912 C.3     1  UNL1        0.0721
     12 C          62.9835   80.6474   13.4029 C.3     1  UNL1        0.0188
     13 C          63.9949   81.6995   13.7493 C.3     1  UNL1        0.0721
     14 C          61.6010   88.3672    9.9320 C.ar    1  UNL1        0.1535
     15 C          60.2501   88.0969    9.3386 C.ar    1  UNL1        0.1012
     16 N          60.3899   86.9653    8.3640 N.ar    1  UNL1       -0.3057
     17 C          59.2862   86.3677    7.5426 C.3     1  UNL1        0.1321
     18 C          61.8272   86.5362    8.3550 C.ar    1  UNL1        0.1787
     19 N          62.5757   87.4026    9.3241 N.ar    1  UNL1       -0.2192
     20 C          62.8495   90.0758   13.2893 C.3     1  UNL1        0.1204
     21 C          64.2094   90.7082   13.3143 C.ar    1  UNL1       -0.0022
     22 C          65.1346   90.4519   14.4669 C.ar    1  UNL1       -0.0003
     23 C          66.4946   91.0843   14.4920 C.ar    1  UNL1        0.0293
     24 C          66.9293   91.9730   13.3644 C.ar    1  UNL1        0.1440
     25 F          68.2892   92.6054   13.3894 F       1  UNL1       -0.2042
     26 C          66.0041   92.2292   12.2119 C.ar    1  UNL1        0.0985
     27 C          64.6442   91.5968   12.1868 C.ar    1  UNL1        0.0035
     28 C          66.4389   93.1178   11.0844 C.3     1  UNL1        0.4207
     29 F          66.8737   94.0065    9.9568 F       1  UNL1       -0.1658
     30 F          67.3475   92.0353   10.5815 F       1  UNL1       -0.1658
     31 F          65.5304   94.2003   11.5871 F       1  UNL1       -0.1658
@<TRIPOS>BOND
     1    12    13    1
     2    13     4    1
     3     4     5    1
     4     6     5    1
     5     6     7    1
     6     7     8    1
     7     8     1    1
     8     1    20    1
     9    20    21    1
    10    21    22   ar
    11    22    23   ar
    12    23    24   ar
    13    24    25    1
    14    24    26   ar
    15    26    28    1
    16    28    29    1
    17    28    30    1
    18    28    31    1
    19    26    27   ar
    20     1     2   am
    21     2     3    2
    22     2    14    1
    23    14    15   ar
    24    15    16   ar
    25    16    17    1
    26    16    18   ar
    27    18    19   ar
    28     8     9    1
    29    10     9    1
    30    10    11    1
    31    11     4    1
    32    10     6    1
    33    27    21   ar
    34    19    14   ar
@<TRIPOS>MOLECULE
*****
 31 34 0 0 0
SMALL
GASTEIGER

@<TRIPOS>ATOM
      1 N          64.4990   91.6649   12.5860 N.am    1  UNL1       -0.2723
      2 C          63.7741   91.6943   11.2732 C.2     1  UNL1        0.2685
      3 O          64.1045   92.7473   10.2573 O.2     1  UNL1       -0.2682
      4 N          63.1515   87.3710   16.7282 N.3     1  UNL1       -0.2727
      5 C          63.0218   88.8530   16.9204 C.3     1  UNL1        0.0721
      6 C          63.4599   89.5248   15.6528 C.3     1  UNL1        0.0190
      7 C          63.6505   90.8560   14.9881 C.3     1  UNL1        0.0213
      8 C          64.1686   90.6119   13.6018 C.3     1  UNL1        0.0761
      9 C          64.2982   89.1299   13.4096 C.3     1  UNL1        0.0213
     10 C          63.8602   88.4581   14.6772 C.3     1  UNL1        0.0190
     11 C          63.6696   87.1270   15.3419 C.3     1  UNL1        0.0721
     12 C          62.5471   84.9106   17.3035 C.3     1  UNL1        0.0188
     13 C          62.8210   86.3180   17.7441 C.3     1  UNL1        0.0721
     14 C          62.7185   90.6707   10.9762 C.ar    1  UNL1        0.1535
     15 C          62.8737   89.4792   10.0783 C.ar    1  UNL1        0.1012
     16 N          61.5737   88.7310   10.0721 N.ar    1  UNL1       -0.3057
     17 C          61.2833   87.4744    9.3063 C.3     1  UNL1        0.1321
     18 C          60.6150   89.4601   10.9661 C.ar    1  UNL1        0.1787
     19 N          61.3225   90.6590   11.5249 N.ar    1  UNL1       -0.2192
     20 C          65.5545   92.6885   12.8829 C.3     1  UNL1        0.1204
     21 C          66.2233   93.4238   11.7596 C.ar    1  UNL1       -0.0022
     22 C          66.0238   94.9028   11.6075 C.ar    1  UNL1       -0.0003
     23 C          66.6926   95.6381   10.4841 C.ar    1  UNL1        0.0293
     24 C          67.5609   94.8946    9.5128 C.ar    1  UNL1        0.1440
     25 F          68.2296   95.6299    8.3894 F       1  UNL1       -0.2042
     26 C          67.7603   93.4157    9.6649 C.ar    1  UNL1        0.0985
     27 C          67.0915   92.6803   10.7883 C.ar    1  UNL1        0.0035
     28 C          68.6285   92.6722    8.6937 C.3     1  UNL1        0.4207
     29 F          69.4967   91.9287    7.7223 F       1  UNL1       -0.1658
     30 F          69.1612   91.8297    9.8146 F       1  UNL1       -0.1658
     31 F          68.0959   93.5147    7.5727 F       1  UNL1       -0.1658
@<TRIPOS>BOND
     1    12    13    1
     2    13     4    1
     3     4     5    1
     4     6     5    1
     5     6     7    1
     6     7     8    1
     7     8     1    1
     8     1    20    1
     9    20    21    1
    10    21    22   ar
    11    22    23   ar
    12    23    24   ar
    13    24    25    1
    14    24    26   ar
    15    26    28    1
    16    28    29    1
    17    28    30    1
    18    28    31    1
    19    26    27   ar
    20     1     2   am
    21     2     3    2
    22     2    14    1
    23    14    15   ar
    24    15    16   ar
    25    16    17    1
    26    16    18   ar
    27    18    19   ar
    28     8     9    1
    29    10     9    1
    30    10    11    1
    31    11     4    1
    32    10     6    1
    33    27    21   ar
    34    19    14   ar
@<TRIPOS>MOLECULE
*****
 31 34 0 0 0
SMALL
GASTEIGER

@<TRIPOS>ATOM
      1 N          63.7052   91.1446   11.7151 N.am    1  UNL1       -0.2723
      2 C          62.8845   90.8550   10.4934 C.2     1  UNL1        0.2685
      3 O          62.9574   91.7696    9.3067 O.2     1  UNL1       -0.2682
      4 N          63.4080   87.4150   16.5539 N.3     1  UNL1       -0.2727
      5 C          63.7890   87.0196   15.1580 C.3     1  UNL1        0.0721
      6 C          63.7291   88.2459   14.2961 C.3     1  UNL1        0.0190
      7 C          63.9276   88.7594   12.9008 C.3     1  UNL1        0.0213
      8 C          63.6323   90.2299   12.9017 C.3     1  UNL1        0.0761
      9 C          63.2514   90.6254   14.2975 C.3     1  UNL1        0.0213
     10 C          63.3112   89.3992   15.1594 C.3     1  UNL1        0.0190
     11 C          63.1128   88.8857   16.5547 C.3     1  UNL1        0.0721
     12 C          62.6205   86.9403   18.9837 C.3     1  UNL1        0.0188
     13 C          63.3352   86.5004   17.7405 C.3     1  UNL1        0.0721
     14 C          61.9908   89.6507   10.4583 C.ar    1  UNL1        0.1535
     15 C          62.2863   88.3535    9.7657 C.ar    1  UNL1        0.1012
     16 N          61.1230   87.4333    9.9890 N.ar    1  UNL1       -0.3057
     17 C          60.9963   86.0308    9.4723 C.3     1  UNL1        0.1321
     18 C          60.1085   88.1618   10.8197 C.ar    1  UNL1        0.1787
     19 N          60.6449   89.5323   11.1099 N.ar    1  UNL1       -0.2192
     20 C          64.5988   92.3488   11.7501 C.3     1  UNL1        0.1204
     21 C          66.0295   92.2089   12.1785 C.ar    1  UNL1       -0.0022
     22 C          67.1076   92.0408   11.1492 C.ar    1  UNL1       -0.0003
     23 C          68.5383   91.9010   11.5777 C.ar    1  UNL1        0.0293
     24 C          68.8908   91.9292   13.0355 C.ar    1  UNL1        0.1440
     25 F          70.3215   91.7894   13.4640 F       1  UNL1       -0.2042
     26 C          67.8127   92.0973   14.0647 C.ar    1  UNL1        0.0985
     27 C          66.3820   92.2372   13.6362 C.ar    1  UNL1        0.0035
     28 C          68.1652   92.1256   15.5224 C.3     1  UNL1        0.4207
     29 F          68.5178   92.1538   16.9801 F       1  UNL1       -0.1658
     30 F          68.5923   93.5576   15.3914 F       1  UNL1       -0.1658
     31 F          67.7382   90.6937   15.6534 F       1  UNL1       -0.1658
@<TRIPOS>BOND
     1    12    13    1
     2    13     4    1
     3     4     5    1
     4     6     5    1
     5     6     7    1
     6     7     8    1
     7     8     1    1
     8     1    20    1
     9    20    21    1
    10    21    22   ar
    11    22    23   ar
    12    23    24   ar
    13    24    25    1
    14    24    26   ar
    15    26    28    1
    16    28    29    1
    17    28    30    1
    18    28    31    1
    19    26    27   ar
    20     1     2   am
    21     2     3    2
    22     2    14    1
    23    14    15   ar
    24    15    16   ar
    25    16    17    1
    26    16    18   ar
    27    18    19   ar
    28     8     9    1
    29    10     9    1
    30    10    11    1
    31    11     4    1
    32    10     6    1
    33    27    21   ar
    34    19    14   ar
