@<TRIPOS>MOLECULE
*****
 37 41 0 0 0
SMALL
GASTEIGER

@<TRIPOS>ATOM
      1 C          63.5698   88.2743   15.4678 C.3     1  UNL1        0.2246
      2 C          63.6658   86.7980   15.2201 C.2     1  UNL1        0.0436
      3 C          63.3965   85.8314   16.3350 C.2     1  UNL1        0.0288
      4 C          63.0311   86.3409   17.6977 C.2     1  UNL1        0.0896
      5 N          62.9350   87.8172   17.9454 N.am    1  UNL1       -0.1770
      6 C          63.2044   88.7838   16.8305 C.2     1  UNL1        0.2627
      7 O          63.1083   90.2601   17.0782 O.2     1  UNL1       -0.2719
      8 C          62.2199   90.3854   10.1007 C.3     1  UNL1        0.0312
      9 C          63.3533   90.9755   10.8863 C.2     1  UNL1        0.0136
     10 C          64.1533   92.1078   10.3135 C.2     1  UNL1        0.0107
     11 C          65.2866   92.6980   11.0990 C.2     1  UNL1        0.0510
     12 C          65.6201   92.1559   12.4574 C.2     1  UNL1        0.0613
     13 C          64.8202   91.0236   13.0301 C.2     1  UNL1        0.2246
     14 N          64.9143   90.2867   14.3332 N.2     1  UNL1       -0.0378
     15 C          63.8391   89.2410   14.3529 C.2     1  UNL1        0.3605
     16 N          63.0804   89.3317   13.0621 N.2     1  UNL1       -0.0547
     17 C          63.6868   90.4335   12.2445 C.3     1  UNL1        0.2976
     18 N          66.0866   93.8303   10.5263 N.pl3   1  UNL1       -0.3046
     19 C          67.1820   93.5512    9.5403 C.3     1  UNL1        0.1079
     20 C          67.9820   94.6835    8.9675 C.3     1  UNL1        0.0903
     21 N          67.6865   96.0948    9.3808 N.3     1  UNL1       -0.2946
     22 C          66.5911   96.3739   10.3667 C.3     1  UNL1        0.0903
     23 C          65.7911   95.2417   10.9395 C.3     1  UNL1        0.1079
     24 H          67.4551   96.6083    8.5304 H       1  UNL1        0.1233
     25 N          64.0312   86.2884   13.8575 N.pl3   1  UNL1       -0.3329
     26 H          64.2262   86.9230   13.1305 H       1  UNL1        0.1466
     27 C          64.0994   84.8118   13.6023 C.3     1  UNL1        0.1211
     28 C          63.0827   84.1562   12.7155 C.3     1  UNL1        0.1522
     29 O          62.4190   82.8829   13.1492 O.3     1  UNL1       -0.3783
     30 H          62.7581   82.6217   14.0197 H       1  UNL1        0.2109
     31 C          62.7298   84.7739   11.3950 C.ar    1  UNL1        0.0067
     32 C          63.4533   84.3500   10.1513 C.ar    1  UNL1       -0.0018
     33 C          63.1003   84.9678    8.8308 C.ar    1  UNL1        0.0006
     34 C          62.0238   86.0095    8.7539 C.ar    1  UNL1        0.0114
     35 C          61.3002   86.4333    9.9975 C.ar    1  UNL1        0.0574
     36 CL         60.2237   87.4750    9.9206 Cl      1  UNL1       -0.0823
     37 C          61.6532   85.8156   11.3181 C.ar    1  UNL1        0.0095
@<TRIPOS>BOND
     1     8     9    1
     2     9    10    2
     3    10    11    1
     4    11    18    1
     5    18    19    1
     6    19    20    1
     7    20    21    1
     8    21    22    1
     9    22    23    1
    10    11    12    2
    11    12    13    1
    12    13    14    2
    13    14    15    1
    14    15     1    1
    15     1     2    1
    16     2    25    1
    17    25    27    1
    18    27    28    1
    19    28    29    1
    20    28    31    1
    21    31    32   ar
    22    32    33   ar
    23    33    34   ar
    24    34    35   ar
    25    35    36    1
    26    35    37   ar
    27     2     3    2
    28     3     4    1
    29     4     5    2
    30     5     6    1
    31     6     7    2
    32    15    16    2
    33    16    17    1
    34    17     9    1
    35    23    18    1
    36    17    13    1
    37     6     1    1
    38    37    31   ar
    39    21    24    1
    40    25    26    1
    41    29    30    1
@<TRIPOS>MOLECULE
*****
 37 41 0 0 0
SMALL
GASTEIGER

@<TRIPOS>ATOM
      1 C          63.6059   88.4252   15.5310 C.3     1  UNL1        0.2246
      2 C          63.7922   86.9506   15.3287 C.2     1  UNL1        0.0436
      3 C          63.5221   85.9989   16.4563 C.2     1  UNL1        0.0288
      4 C          63.0657   86.5217   17.7861 C.2     1  UNL1        0.0896
      5 N          62.8795   87.9963   17.9884 N.am    1  UNL1       -0.1770
      6 C          63.1496   88.9480   16.8608 C.2     1  UNL1        0.2627
      7 O          62.9633   90.4226   17.0631 O.2     1  UNL1       -0.2719
      8 C          62.2621   90.4619   10.1337 C.3     1  UNL1        0.0312
      9 C          63.3938   91.0638   10.9129 C.2     1  UNL1        0.0136
     10 C          64.1936   92.1889   10.3260 C.2     1  UNL1        0.0107
     11 C          65.3252   92.7907   11.1051 C.2     1  UNL1        0.0510
     12 C          65.6573   92.2675   12.4711 C.2     1  UNL1        0.0613
     13 C          64.8575   91.1423   13.0580 C.2     1  UNL1        0.2246
     14 N          64.9504   90.4232   14.3711 N.2     1  UNL1       -0.0378
     15 C          63.8760   89.3769   14.4035 C.2     1  UNL1        0.3605
     16 N          63.1192   89.4494   13.1104 N.2     1  UNL1       -0.0547
     17 C          63.7258   90.5405   12.2789 C.3     1  UNL1        0.2976
     18 N          66.1250   93.9159   10.5181 N.pl3   1  UNL1       -0.3046
     19 C          67.1591   93.6335    9.4689 C.3     1  UNL1        0.1079
     20 C          67.9589   94.7586    8.8820 C.3     1  UNL1        0.0903
     21 N          67.7246   96.1662    9.3444 N.3     1  UNL1       -0.2946
     22 C          66.6905   96.4486   10.3936 C.3     1  UNL1        0.0903
     23 C          65.8908   95.3235   10.9805 C.3     1  UNL1        0.1079
     24 H          67.4631   96.7072    8.5201 H       1  UNL1        0.1233
     25 N          64.2485   86.4277   13.9990 N.pl3   1  UNL1       -0.3329
     26 H          64.6054   87.0475   13.3224 H       1  UNL1        0.1466
     27 C          64.1612   84.9604   13.6999 C.3     1  UNL1        0.1211
     28 C          62.9609   84.4101   12.9883 C.3     1  UNL1        0.1522
     29 O          61.9411   85.3433   12.4059 O.3     1  UNL1       -0.3783
     30 H          62.2074   86.2604   12.5764 H       1  UNL1        0.2109
     31 C          62.7804   82.9267   12.8591 C.ar    1  UNL1        0.0067
     32 C          62.3666   82.1148   14.0506 C.ar    1  UNL1       -0.0018
     33 C          62.1861   80.6313   13.9213 C.ar    1  UNL1        0.0006
     34 C          62.4193   79.9596   12.6005 C.ar    1  UNL1        0.0114
     35 C          62.8331   80.7715   11.4091 C.ar    1  UNL1        0.0574
     36 CL         63.0664   80.0998   10.0883 Cl      1  UNL1       -0.0823
     37 C          63.0137   82.2550   11.5383 C.ar    1  UNL1        0.0095
@<TRIPOS>BOND
     1     8     9    1
     2     9    10    2
     3    10    11    1
     4    11    18    1
     5    18    19    1
     6    19    20    1
     7    20    21    1
     8    21    22    1
     9    22    23    1
    10    11    12    2
    11    12    13    1
    12    13    14    2
    13    14    15    1
    14    15     1    1
    15     1     2    1
    16     2    25    1
    17    25    27    1
    18    27    28    1
    19    28    29    1
    20    28    31    1
    21    31    32   ar
    22    32    33   ar
    23    33    34   ar
    24    34    35   ar
    25    35    36    1
    26    35    37   ar
    27     2     3    2
    28     3     4    1
    29     4     5    2
    30     5     6    1
    31     6     7    2
    32    15    16    2
    33    16    17    1
    34    17     9    1
    35    23    18    1
    36    17    13    1
    37     6     1    1
    38    37    31   ar
    39    21    24    1
    40    25    26    1
    41    29    30    1
@<TRIPOS>MOLECULE
*****
 37 41 0 0 0
SMALL
GASTEIGER

@<TRIPOS>ATOM
      1 C          61.2405   87.8131    9.6453 C.3     1  UNL1        0.2246
      2 C          61.5416   86.4670    9.0561 C.2     1  UNL1        0.0436
      3 C          60.6494   85.8966    7.9937 C.2     1  UNL1        0.0288
      4 C          59.4560   86.6724    7.5205 C.2     1  UNL1        0.0896
      5 N          59.1548   88.0186    8.1096 N.am    1  UNL1       -0.1770
      6 C          60.0471   88.5889    9.1720 C.2     1  UNL1        0.2627
      7 O          59.7459   89.9351    9.7611 O.2     1  UNL1       -0.2719
      8 C          64.0607   87.1989   14.8176 C.3     1  UNL1        0.0312
      9 C          64.1695   88.4770   14.0401 C.2     1  UNL1        0.0136
     10 C          64.9965   89.6100   14.5713 C.2     1  UNL1        0.0107
     11 C          65.1052   90.8881   13.7939 C.2     1  UNL1        0.0510
     12 C          64.3869   91.0333   12.4850 C.2     1  UNL1        0.0613
     13 C          63.5599   89.9003   11.9537 C.2     1  UNL1        0.2246
     14 N          62.7450   89.7528   10.7031 N.2     1  UNL1       -0.0378
     15 C          62.1326   88.3835   10.7076 C.2     1  UNL1        0.3605
     16 N          62.5691   87.6847   11.9611 N.2     1  UNL1       -0.0547
     17 C          63.4512   88.6221   12.7313 C.3     1  UNL1        0.2976
     18 N          65.9323   92.0212   14.3252 N.pl3   1  UNL1       -0.3046
     19 C          66.6026   91.8982   15.6615 C.3     1  UNL1        0.1079
     20 C          67.4296   93.0312   16.1928 C.3     1  UNL1        0.0903
     21 N          67.5864   94.2872   15.3878 N.3     1  UNL1       -0.2946
     22 C          66.9161   94.4101   14.0516 C.3     1  UNL1        0.0903
     23 C          66.0891   93.2771   13.5203 C.3     1  UNL1        0.1079
     24 H          68.5861   94.4119   15.2284 H       1  UNL1        0.1233
     25 N          62.7350   85.6911    9.5293 N.pl3   1  UNL1       -0.3329
     26 H          63.5850   86.1550    9.7066 H       1  UNL1        0.1466
     27 C          62.6332   84.2084    9.7324 C.3     1  UNL1        0.1211
     28 C          63.5447   83.5203   10.7049 C.3     1  UNL1        0.1522
     29 O          65.0019   83.3637   10.3851 O.3     1  UNL1       -0.3783
     30 H          65.1872   83.7592    9.5190 H       1  UNL1        0.2109
     31 C          62.9991   82.9889   11.9971 C.ar    1  UNL1        0.0067
     32 C          62.5319   81.5663   12.0854 C.ar    1  UNL1       -0.0018
     33 C          61.9863   81.0349   13.3777 C.ar    1  UNL1        0.0006
     34 C          61.9077   81.9262   14.5816 C.ar    1  UNL1        0.0114
     35 C          62.3749   83.3488   14.4933 C.ar    1  UNL1        0.0574
     36 CL         62.2963   84.2401   15.6972 Cl      1  UNL1       -0.0823
     37 C          62.9205   83.8802   13.2010 C.ar    1  UNL1        0.0095
@<TRIPOS>BOND
     1     8     9    1
     2     9    10    2
     3    10    11    1
     4    11    18    1
     5    18    19    1
     6    19    20    1
     7    20    21    1
     8    21    22    1
     9    22    23    1
    10    11    12    2
    11    12    13    1
    12    13    14    2
    13    14    15    1
    14    15     1    1
    15     1     2    1
    16     2    25    1
    17    25    27    1
    18    27    28    1
    19    28    29    1
    20    28    31    1
    21    31    32   ar
    22    32    33   ar
    23    33    34   ar
    24    34    35   ar
    25    35    36    1
    26    35    37   ar
    27     2     3    2
    28     3     4    1
    29     4     5    2
    30     5     6    1
    31     6     7    2
    32    15    16    2
    33    16    17    1
    34    17     9    1
    35    23    18    1
    36    17    13    1
    37     6     1    1
    38    37    31   ar
    39    21    24    1
    40    25    26    1
    41    29    30    1
@<TRIPOS>MOLECULE
*****
 37 41 0 0 0
SMALL
GASTEIGER

@<TRIPOS>ATOM
      1 C          63.1828   83.5506   13.5893 C.3     1  UNL1        0.2246
      2 C          62.6475   83.2390   12.2232 C.2     1  UNL1        0.0436
      3 C          62.4026   81.8149   11.8205 C.2     1  UNL1        0.0288
      4 C          62.6931   80.7025   12.7839 C.2     1  UNL1        0.0896
      5 N          63.2284   81.0141   14.1500 N.am    1  UNL1       -0.1770
      6 C          63.4733   82.4381   14.5526 C.2     1  UNL1        0.2627
      7 O          64.0087   82.7498   15.9187 O.2     1  UNL1       -0.2719
      8 C          62.7662   87.8582   17.6334 C.3     1  UNL1        0.0312
      9 C          63.3914   88.1287   16.2970 C.2     1  UNL1        0.0136
     10 C          63.9161   89.4971   15.9775 C.2     1  UNL1        0.0107
     11 C          64.5412   89.7676   14.6412 C.2     1  UNL1        0.0510
     12 C          64.6418   88.6696   13.6241 C.2     1  UNL1        0.0613
     13 C          64.1171   87.3011   13.9436 C.2     1  UNL1        0.2246
     14 N          64.0774   86.0304   13.1475 N.2     1  UNL1       -0.0378
     15 C          63.4277   84.9746   13.9920 C.2     1  UNL1        0.3605
     16 N          63.0659   85.5928   15.3099 N.2     1  UNL1       -0.0547
     17 C          63.4919   87.0307   15.2800 C.3     1  UNL1        0.2976
     18 N          65.0659   91.1361   14.3218 N.pl3   1  UNL1       -0.3046
     19 C          64.9230   91.6893   12.9348 C.3     1  UNL1        0.1079
     20 C          65.4477   93.0577   12.6154 C.3     1  UNL1        0.0903
     21 N          66.1152   93.8730   13.6829 N.3     1  UNL1       -0.2946
     22 C          66.2582   93.3199   15.0698 C.3     1  UNL1        0.0903
     23 C          65.7335   91.9514   15.3893 C.3     1  UNL1        0.1079
     24 H          65.5855   94.7408   13.7651 H       1  UNL1        0.1233
     25 N          62.3569   84.3513   11.2597 N.pl3   1  UNL1       -0.3329
     26 H          61.6075   84.9667   11.4298 H       1  UNL1        0.1466
     27 C          63.2082   84.5261   10.0371 C.3     1  UNL1        0.1211
     28 C          62.6723   85.2706    8.8503 C.3     1  UNL1        0.1522
     29 O          62.9441   84.7671    7.4638 O.3     1  UNL1       -0.3783
     30 H          63.4757   83.9572    7.5123 H       1  UNL1        0.2109
     31 C          61.8645   86.5187    9.0501 C.ar    1  UNL1        0.0067
     32 C          60.4578   86.5921    8.5348 C.ar    1  UNL1       -0.0018
     33 C          59.6500   87.8401    8.7345 C.ar    1  UNL1        0.0006
     34 C          60.2490   89.0148    9.4497 C.ar    1  UNL1        0.0114
     35 C          61.6557   88.9413    9.9650 C.ar    1  UNL1        0.0574
     36 CL         62.2547   90.1160   10.6801 Cl      1  UNL1       -0.0823
     37 C          62.4635   87.6933    9.7652 C.ar    1  UNL1        0.0095
@<TRIPOS>BOND
     1     8     9    1
     2     9    10    2
     3    10    11    1
     4    11    18    1
     5    18    19    1
     6    19    20    1
     7    20    21    1
     8    21    22    1
     9    22    23    1
    10    11    12    2
    11    12    13    1
    12    13    14    2
    13    14    15    1
    14    15     1    1
    15     1     2    1
    16     2    25    1
    17    25    27    1
    18    27    28    1
    19    28    29    1
    20    28    31    1
    21    31    32   ar
    22    32    33   ar
    23    33    34   ar
    24    34    35   ar
    25    35    36    1
    26    35    37   ar
    27     2     3    2
    28     3     4    1
    29     4     5    2
    30     5     6    1
    31     6     7    2
    32    15    16    2
    33    16    17    1
    34    17     9    1
    35    23    18    1
    36    17    13    1
    37     6     1    1
    38    37    31   ar
    39    21    24    1
    40    25    26    1
    41    29    30    1
@<TRIPOS>MOLECULE
*****
 37 41 0 0 0
SMALL
GASTEIGER

@<TRIPOS>ATOM
      1 C          64.1647   90.1197   12.8298 C.3     1  UNL1        0.2246
      2 C          63.5839   90.6281   11.5437 C.2     1  UNL1        0.0436
      3 C          63.8811   92.0258   11.0872 C.2     1  UNL1        0.0288
      4 C          64.7591   92.9150   11.9169 C.2     1  UNL1        0.0896
      5 N          65.3399   92.4066   13.2030 N.am    1  UNL1       -0.1770
      6 C          65.0427   91.0090   13.6595 C.2     1  UNL1        0.2627
      7 O          65.6235   90.5006   14.9456 O.2     1  UNL1       -0.2719
      8 C          63.3698   86.2483   17.2417 C.3     1  UNL1        0.0312
      9 C          63.2614   85.8047   15.8129 C.2     1  UNL1        0.0136
     10 C          62.9498   84.3726   15.4938 C.2     1  UNL1        0.0107
     11 C          62.8414   83.9289   14.0651 C.2     1  UNL1        0.0510
     12 C          63.0445   84.9175   12.9553 C.2     1  UNL1        0.0613
     13 C          63.3560   86.3497   13.2744 C.2     1  UNL1        0.2246
     14 N          63.6051   87.5417   12.3987 N.2     1  UNL1       -0.0378
     15 C          63.8675   88.7221   13.2863 C.2     1  UNL1        0.3605
     16 N          63.7806   88.2595   14.7105 N.2     1  UNL1       -0.0547
     17 C          63.4645   86.7933   14.7032 C.3     1  UNL1        0.2976
     18 N          62.5298   82.4967   13.7460 N.pl3   1  UNL1       -0.3046
     19 C          61.4622   81.7728   14.5118 C.3     1  UNL1        0.1079
     20 C          61.1506   80.3407   14.1927 C.3     1  UNL1        0.0903
     21 N          61.9066   79.6324   13.1079 N.3     1  UNL1       -0.2946
     22 C          62.9742   80.3562   12.3422 C.3     1  UNL1        0.0903
     23 C          63.2858   81.7884   12.6612 C.3     1  UNL1        0.1079
     24 H          61.2169   79.3177   12.4256 H       1  UNL1        0.1233
     25 N          62.7059   89.7389   10.7139 N.pl3   1  UNL1       -0.3329
     26 H          63.1080   89.1152   10.0670 H       1  UNL1        0.1466
     27 C          61.2153   89.8000   10.8699 C.3     1  UNL1        0.1211
     28 C          60.4094   88.5349   10.8761 C.3     1  UNL1        0.1522
     29 O          59.5202   88.2178   12.0417 O.3     1  UNL1       -0.3783
     30 H          59.5828   88.9284   12.6989 H       1  UNL1        0.2109
     31 C          60.4927   87.5869    9.7166 C.ar    1  UNL1        0.0067
     32 C          59.3255   87.4345    8.7870 C.ar    1  UNL1       -0.0018
     33 C          59.4088   86.4865    7.6275 C.ar    1  UNL1        0.0006
     34 C          60.6595   85.6909    7.3976 C.ar    1  UNL1        0.0114
     35 C          61.8268   85.8433    8.3272 C.ar    1  UNL1        0.0574
     36 CL         63.0774   85.0477    8.0973 Cl      1  UNL1       -0.0823
     37 C          61.7434   86.7913    9.4867 C.ar    1  UNL1        0.0095
@<TRIPOS>BOND
     1     8     9    1
     2     9    10    2
     3    10    11    1
     4    11    18    1
     5    18    19    1
     6    19    20    1
     7    20    21    1
     8    21    22    1
     9    22    23    1
    10    11    12    2
    11    12    13    1
    12    13    14    2
    13    14    15    1
    14    15     1    1
    15     1     2    1
    16     2    25    1
    17    25    27    1
    18    27    28    1
    19    28    29    1
    20    28    31    1
    21    31    32   ar
    22    32    33   ar
    23    33    34   ar
    24    34    35   ar
    25    35    36    1
    26    35    37   ar
    27     2     3    2
    28     3     4    1
    29     4     5    2
    30     5     6    1
    31     6     7    2
    32    15    16    2
    33    16    17    1
    34    17     9    1
    35    23    18    1
    36    17    13    1
    37     6     1    1
    38    37    31   ar
    39    21    24    1
    40    25    26    1
    41    29    30    1
