@<TRIPOS>MOLECULE
*****
 48 53 0 0 0
SMALL
GASTEIGER

@<TRIPOS>ATOM
      1 C          60.9459   87.9940    9.6354 C.3     1  UNL1        0.1934
      2 C          63.1537   90.0784   12.1908 C.ar    1  UNL1        0.0574
      3 C          62.2399   89.7491   11.0478 C.ar    1  UNL1        0.0786
      4 N          61.8597   88.3234   10.7784 N.ar    1  UNL1       -0.2979
      5 C          62.3933   87.2269   11.6520 C.ar    1  UNL1        0.1750
      6 N          63.3070   87.5563   12.7950 N.ar    1  UNL1       -0.1847
      7 C          63.6873   88.9820   13.0644 C.ar    1  UNL1        0.2786
      8 O          64.6011   89.3114   14.2074 O.2     1  UNL1       -0.2654
      9 C          63.5340   91.5043   12.4602 C.3     1  UNL1        0.0622
     10 C          67.6370   93.2511    9.6329 C.3     1  UNL1        0.1537
     11 N          66.7839   92.8039   10.7828 N.ar    1  UNL1       -0.2477
     12 C          65.3551   92.3554   10.6984 C.ar    1  UNL1        0.0927
     13 C          64.8980   92.0009   12.0823 C.ar    1  UNL1        0.0220
     14 C          66.0444   92.2303   13.0221 C.ar    1  UNL1        0.1177
     15 N          67.2100   92.7266   12.2189 N.ar    1  UNL1       -0.1679
     16 S          62.0130   85.8011   11.3826 S.3     1  UNL1       -0.0724
     17 C          63.0784   84.7554   11.2373 C.3     1  UNL1        0.0913
     18 C          62.9038   83.4121   11.8817 C.ar    1  UNL1       -0.0108
     19 C          62.5130   83.3188   13.3269 C.ar    1  UNL1       -0.0011
     20 C          62.3385   81.9756   13.9713 C.ar    1  UNL1        0.0293
     21 C          62.5547   80.7257   13.1705 C.ar    1  UNL1        0.1401
     22 F          62.3802   79.3825   13.8150 F       1  UNL1       -0.2042
     23 C          62.9456   80.8191   11.7254 C.ar    1  UNL1        0.0293
     24 C          63.1201   82.1623   11.0810 C.ar    1  UNL1       -0.0011
     25 C          60.1578   89.0817    8.9677 C.2     1  UNL1        0.2491
     26 O          60.1628   90.4693    9.5375 O.2     1  UNL1       -0.2727
     27 N          59.3646   88.7819    7.7304 N.am    1  UNL1       -0.2724
     28 C          59.3596   87.3943    7.1607 C.3     1  UNL1        0.1111
     29 C          60.0150   86.2730    7.9111 C.3     1  UNL1        0.0939
     30 N          61.1267   85.4932    7.2740 N.3     1  UNL1       -0.2712
     31 C          61.0430   84.7313    5.9845 C.3     1  UNL1        0.0722
     32 C          62.3818   84.1056    5.7280 C.3     1  UNL1        0.0188
     33 C          63.2931   84.4807    6.8590 C.3     1  UNL1        0.0188
     34 C          62.5173   85.3383    7.8144 C.3     1  UNL1        0.0722
     35 C          58.5765   89.8696    7.0628 C.3     1  UNL1        0.1202
     36 C          59.1765   90.6394    5.9236 C.ar    1  UNL1       -0.0023
     37 C          58.3274   91.5871    5.1293 C.ar    1  UNL1       -0.0026
     38 C          58.9273   92.3568    3.9902 C.ar    1  UNL1       -0.0003
     39 C          60.3762   92.1788    3.6454 C.ar    1  UNL1       -0.0000
     40 C          61.2252   91.2311    4.4397 C.ar    1  UNL1       -0.0003
     41 C          60.6254   90.4614    5.5788 C.ar    1  UNL1       -0.0026
     42 C          60.9762   92.9485    2.5062 C.ar    1  UNL1        0.0001
     43 C          62.4190   92.7523    2.1459 C.ar    1  UNL1        0.0009
     44 C          63.0189   93.5220    1.0068 C.ar    1  UNL1        0.0114
     45 C          62.1761   94.4878    0.2279 C.ar    1  UNL1        0.0577
     46 CL         62.7760   95.2575   -0.9113 Cl      1  UNL1       -0.0822
     47 C          60.7332   94.6840    0.5882 C.ar    1  UNL1        0.0114
     48 C          60.1333   93.9144    1.7273 C.ar    1  UNL1        0.0009
@<TRIPOS>BOND
     1    10    11    1
     2    11    12   ar
     3    12    13   ar
     4    13     9    1
     5     9     2    1
     6     2     3   ar
     7     3     4   ar
     8     4     1    1
     9     1    25    1
    10    25    26    2
    11    25    27   am
    12    27    28    1
    13    28    29    1
    14    29    30    1
    15    30    31    1
    16    31    32    1
    17    32    33    1
    18    33    34    1
    19    27    35    1
    20    35    36    1
    21    36    37   ar
    22    37    38   ar
    23    38    39   ar
    24    39    42    1
    25    42    43   ar
    26    43    44   ar
    27    44    45   ar
    28    45    46    1
    29    45    47   ar
    30    47    48   ar
    31    39    40   ar
    32    40    41   ar
    33     4     5   ar
    34     5    16    1
    35    16    17    1
    36    17    18    1
    37    18    19   ar
    38    19    20   ar
    39    20    21   ar
    40    21    22    1
    41    21    23   ar
    42    23    24   ar
    43     5     6   ar
    44     6     7   ar
    45     7     8    2
    46    13    14   ar
    47    14    15   ar
    48    15    11   ar
    49     7     2   ar
    50    34    30    1
    51    41    36   ar
    52    24    18   ar
    53    48    42   ar
@<TRIPOS>MOLECULE
*****
 48 53 0 0 0
SMALL
GASTEIGER

@<TRIPOS>ATOM
      1 C          62.6599   90.5308   12.8087 C.3     1  UNL1        0.1934
      2 C          65.9065   92.6162   13.7362 C.ar    1  UNL1        0.0574
      3 C          64.8052   91.9911   12.9323 C.ar    1  UNL1        0.0786
      4 N          63.7613   91.1561   13.6126 N.ar    1  UNL1       -0.2979
      5 C          63.8186   90.9462   15.0967 C.ar    1  UNL1        0.1750
      6 N          64.9199   91.5714   15.9006 N.ar    1  UNL1       -0.1847
      7 C          65.9639   92.4064   15.2203 C.ar    1  UNL1        0.2786
      8 O          67.0653   93.0316   16.0242 O.2     1  UNL1       -0.2654
      9 C          66.9506   93.4513   13.0559 C.3     1  UNL1        0.0622
     10 C          65.4398   96.8197    9.2807 C.3     1  UNL1        0.1537
     11 N          65.9750   95.6035    9.9767 N.ar    1  UNL1       -0.2477
     12 C          66.0806   95.4117   11.4606 C.ar    1  UNL1        0.0927
     13 C          66.6694   94.0552   11.7119 C.ar    1  UNL1        0.0220
     14 C          66.9278   93.4086   10.3833 C.ar    1  UNL1        0.1177
     15 N          66.4986   94.3655    9.3108 N.ar    1  UNL1       -0.1679
     16 S          62.7746   90.1111   15.7770 S.3     1  UNL1       -0.0724
     17 C          63.1769   89.1090   16.8181 C.3     1  UNL1        0.0913
     18 C          63.4133   87.6792   16.4311 C.ar    1  UNL1       -0.0108
     19 C          64.3163   87.3537   15.2784 C.ar    1  UNL1       -0.0011
     20 C          64.5526   85.9239   14.8914 C.ar    1  UNL1        0.0293
     21 C          63.8861   84.8196   15.6571 C.ar    1  UNL1        0.1401
     22 F          64.1225   83.3898   15.2701 F       1  UNL1       -0.2042
     23 C          62.9831   85.1451   16.8098 C.ar    1  UNL1        0.0293
     24 C          62.7467   86.5749   17.1967 C.ar    1  UNL1       -0.0011
     25 C          62.9500   89.3506   11.9296 C.2     1  UNL1        0.2491
     26 O          63.8890   88.2789   12.3987 O.2     1  UNL1       -0.2727
     27 N          62.3013   89.2420   10.5816 N.am    1  UNL1       -0.2724
     28 C          61.3623   90.3136   10.1125 C.3     1  UNL1        0.1111
     29 C          59.9333   89.9769    9.8052 C.3     1  UNL1        0.0939
     30 N          59.6137   88.8791    8.8342 N.3     1  UNL1       -0.2712
     31 C          59.6194   88.9954    7.3387 C.3     1  UNL1        0.0722
     32 C          59.2415   87.6605    6.7685 C.3     1  UNL1        0.0188
     33 C          59.0022   86.7192    7.9116 C.3     1  UNL1        0.0188
     34 C          59.2322   87.4723    9.1883 C.3     1  UNL1        0.0722
     35 C          62.5915   88.0617    9.7025 C.3     1  UNL1        0.1202
     36 C          62.5736   86.6762   10.2771 C.ar    1  UNL1       -0.0023
     37 C          63.0981   85.5239    9.4726 C.ar    1  UNL1       -0.0026
     38 C          63.0803   84.1384   10.0471 C.ar    1  UNL1       -0.0003
     39 C          62.5380   83.9052   11.4261 C.ar    1  UNL1       -0.0000
     40 C          62.0136   85.0575   12.2305 C.ar    1  UNL1       -0.0003
     41 C          62.0314   86.4430   11.6560 C.ar    1  UNL1       -0.0026
     42 C          62.5202   82.5197   12.0006 C.ar    1  UNL1        0.0001
     43 C          62.1101   82.3047   13.4274 C.ar    1  UNL1        0.0009
     44 C          62.0923   80.9193   14.0020 C.ar    1  UNL1        0.0114
     45 C          62.4845   79.7488   13.1498 C.ar    1  UNL1        0.0577
     46 CL         62.4666   78.3633   13.7244 Cl      1  UNL1       -0.0822
     47 C          62.8946   79.9638   11.7231 C.ar    1  UNL1        0.0114
     48 C          62.9124   81.3493   11.1485 C.ar    1  UNL1        0.0009
@<TRIPOS>BOND
     1    10    11    1
     2    11    12   ar
     3    12    13   ar
     4    13     9    1
     5     9     2    1
     6     2     3   ar
     7     3     4   ar
     8     4     1    1
     9     1    25    1
    10    25    26    2
    11    25    27   am
    12    27    28    1
    13    28    29    1
    14    29    30    1
    15    30    31    1
    16    31    32    1
    17    32    33    1
    18    33    34    1
    19    27    35    1
    20    35    36    1
    21    36    37   ar
    22    37    38   ar
    23    38    39   ar
    24    39    42    1
    25    42    43   ar
    26    43    44   ar
    27    44    45   ar
    28    45    46    1
    29    45    47   ar
    30    47    48   ar
    31    39    40   ar
    32    40    41   ar
    33     4     5   ar
    34     5    16    1
    35    16    17    1
    36    17    18    1
    37    18    19   ar
    38    19    20   ar
    39    20    21   ar
    40    21    22    1
    41    21    23   ar
    42    23    24   ar
    43     5     6   ar
    44     6     7   ar
    45     7     8    2
    46    13    14   ar
    47    14    15   ar
    48    15    11   ar
    49     7     2   ar
    50    34    30    1
    51    41    36   ar
    52    24    18   ar
    53    48    42   ar
@<TRIPOS>MOLECULE
*****
 48 53 0 0 0
SMALL
GASTEIGER

@<TRIPOS>ATOM
      1 C          62.6783   90.0260   13.8547 C.3     1  UNL1        0.1934
      2 C          65.1402   92.3538   11.7882 C.ar    1  UNL1        0.0574
      3 C          64.5298   91.5969   12.9303 C.ar    1  UNL1        0.0786
      4 N          63.2888   90.7830   12.7126 N.ar    1  UNL1       -0.2979
      5 C          62.6583   90.7260   11.3527 C.ar    1  UNL1        0.1750
      6 N          63.2687   91.4829   10.2106 N.ar    1  UNL1       -0.1847
      7 C          64.5097   92.2968   10.4284 C.ar    1  UNL1        0.2786
      8 O          65.1202   93.0538    9.2863 O.2     1  UNL1       -0.2654
      9 C          66.3812   93.1678   12.0059 C.3     1  UNL1        0.0622
     10 C          67.6139   96.7948    8.3720 C.3     1  UNL1        0.1537
     11 N          67.1166   96.1483    9.6308 N.ar    1  UNL1       -0.2477
     12 C          67.1457   94.6806    9.9391 C.ar    1  UNL1        0.0927
     13 C          66.5500   94.4811   11.3012 C.ar    1  UNL1        0.0220
     14 C          66.1527   95.8255   11.8348 C.ar    1  UNL1        0.1177
     15 N          66.5029   96.8559   10.8024 N.ar    1  UNL1       -0.1679
     16 S          61.4172   89.9120   11.1350 S.3     1  UNL1       -0.0724
     17 C          60.7877   89.8534    9.7748 C.3     1  UNL1        0.0913
     18 C          60.6745   88.5413    9.0566 C.ar    1  UNL1       -0.0108
     19 C          61.7205   87.4848    9.2555 C.ar    1  UNL1       -0.0011
     20 C          61.6073   86.1728    8.5373 C.ar    1  UNL1        0.0293
     21 C          60.4481   85.9174    7.6202 C.ar    1  UNL1        0.1401
     22 F          60.3349   84.6053    6.9020 F       1  UNL1       -0.2042
     23 C          59.4021   86.9739    7.4213 C.ar    1  UNL1        0.0293
     24 C          59.5153   88.2859    8.1395 C.ar    1  UNL1       -0.0011
     25 C          63.2597   88.7097   14.2781 C.2     1  UNL1        0.2491
     26 O          63.5178   87.6409   13.2577 O.2     1  UNL1       -0.2727
     27 N          63.5830   88.4622   15.7217 N.am    1  UNL1       -0.2724
     28 C          63.3248   89.5310   16.7421 C.3     1  UNL1        0.1111
     29 C          63.5634   90.9710   16.3967 C.3     1  UNL1        0.0939
     30 N          64.9530   91.4501   16.0974 N.3     1  UNL1       -0.2712
     31 C          65.5866   92.7029   16.6258 C.3     1  UNL1        0.0722
     32 C          66.9781   92.7877   16.0722 C.3     1  UNL1        0.0188
     33 C          67.2045   91.5872   15.2016 C.3     1  UNL1        0.0188
     34 C          65.9529   90.7607   15.2172 C.3     1  UNL1        0.0722
     35 C          64.1644   87.1458   16.1451 C.3     1  UNL1        0.1202
     36 C          63.9412   85.9227   15.3059 C.ar    1  UNL1       -0.0023
     37 C          65.0416   85.4044   14.4281 C.ar    1  UNL1       -0.0026
     38 C          64.8185   84.1814   13.5889 C.ar    1  UNL1       -0.0003
     39 C          63.4950   83.4766   13.6275 C.ar    1  UNL1       -0.0000
     40 C          62.3946   83.9949   14.5053 C.ar    1  UNL1       -0.0003
     41 C          62.6177   85.2179   15.3445 C.ar    1  UNL1       -0.0026
     42 C          63.2718   82.2534   12.7883 C.ar    1  UNL1        0.0001
     43 C          63.4288   82.3273   11.2984 C.ar    1  UNL1        0.0009
     44 C          63.2056   81.1043   10.4591 C.ar    1  UNL1        0.0114
     45 C          62.8255   79.8073   11.1099 C.ar    1  UNL1        0.0577
     46 CL         62.6023   78.5842   10.2707 Cl      1  UNL1       -0.0822
     47 C          62.6685   79.7335   12.5998 C.ar    1  UNL1        0.0114
     48 C          62.8917   80.9565   13.4390 C.ar    1  UNL1        0.0009
@<TRIPOS>BOND
     1    10    11    1
     2    11    12   ar
     3    12    13   ar
     4    13     9    1
     5     9     2    1
     6     2     3   ar
     7     3     4   ar
     8     4     1    1
     9     1    25    1
    10    25    26    2
    11    25    27   am
    12    27    28    1
    13    28    29    1
    14    29    30    1
    15    30    31    1
    16    31    32    1
    17    32    33    1
    18    33    34    1
    19    27    35    1
    20    35    36    1
    21    36    37   ar
    22    37    38   ar
    23    38    39   ar
    24    39    42    1
    25    42    43   ar
    26    43    44   ar
    27    44    45   ar
    28    45    46    1
    29    45    47   ar
    30    47    48   ar
    31    39    40   ar
    32    40    41   ar
    33     4     5   ar
    34     5    16    1
    35    16    17    1
    36    17    18    1
    37    18    19   ar
    38    19    20   ar
    39    20    21   ar
    40    21    22    1
    41    21    23   ar
    42    23    24   ar
    43     5     6   ar
    44     6     7   ar
    45     7     8    2
    46    13    14   ar
    47    14    15   ar
    48    15    11   ar
    49     7     2   ar
    50    34    30    1
    51    41    36   ar
    52    24    18   ar
    53    48    42   ar
@<TRIPOS>MOLECULE
*****
 48 53 0 0 0
SMALL
GASTEIGER

@<TRIPOS>ATOM
      1 C          60.3827   87.6208   11.5219 C.3     1  UNL1        0.1934
      2 C          62.6755   85.0479    9.5539 C.ar    1  UNL1        0.0574
      3 C          61.9766   85.7495   10.6804 C.ar    1  UNL1        0.0786
      4 N          61.0817   86.9190   10.3953 N.ar    1  UNL1       -0.2979
      5 C          60.8857   87.3869    8.9837 C.ar    1  UNL1        0.1750
      6 N          61.5846   86.6853    7.8572 N.ar    1  UNL1       -0.1847
      7 C          62.4795   85.5157    8.1422 C.ar    1  UNL1        0.2786
      8 O          63.1785   84.8140    7.0156 O.2     1  UNL1       -0.2654
      9 C          63.5705   83.8783    9.8389 C.3     1  UNL1        0.0622
     10 C          62.5750   80.4851   13.7601 C.3     1  UNL1        0.1537
     11 N          63.0882   81.6670   12.9921 N.ar    1  UNL1       -0.2477
     12 C          62.8524   81.9425   11.5366 C.ar    1  UNL1        0.0927
     13 C          63.5457   83.2267   11.1897 C.ar    1  UNL1        0.0220
     14 C          64.2100   83.7447   12.4308 C.ar    1  UNL1        0.1177
     15 N          63.9272   82.7808   13.5448 N.ar    1  UNL1       -0.1679
     16 S          59.9907   88.5565    8.6987 S.3     1  UNL1       -0.0724
     17 C          59.1077   88.5473    7.4862 C.3     1  UNL1        0.0913
     18 C          59.1959   89.6614    6.4857 C.ar    1  UNL1       -0.0108
     19 C          60.5352   90.1205    5.9903 C.ar    1  UNL1       -0.0011
     20 C          60.6232   91.2346    4.9899 C.ar    1  UNL1        0.0293
     21 C          59.3720   91.8897    4.4848 C.ar    1  UNL1        0.1401
     22 F          59.4601   93.0038    3.4842 F       1  UNL1       -0.2042
     23 C          58.0326   91.4306    4.9801 C.ar    1  UNL1        0.0293
     24 C          57.9446   90.3165    5.9805 C.ar    1  UNL1       -0.0011
     25 C          61.0139   88.8198   12.1653 C.2     1  UNL1        0.2491
     26 O          60.3071   90.1427   12.1419 O.2     1  UNL1       -0.2727
     27 N          62.3519   88.6960   12.8320 N.am    1  UNL1       -0.2724
     28 C          63.0587   87.3731   12.8553 C.3     1  UNL1        0.1111
     29 C          64.0495   87.0713   13.9403 C.3     1  UNL1        0.0939
     30 N          63.5854   86.9183   15.3584 N.3     1  UNL1       -0.2712
     31 C          63.3464   88.0332   16.3330 C.3     1  UNL1        0.0722
     32 C          62.8921   87.4276   17.6279 C.3     1  UNL1        0.0188
     33 C          62.8503   85.9383   17.4535 C.3     1  UNL1        0.0188
     34 C          63.2788   85.6236   16.0509 C.3     1  UNL1        0.0722
     35 C          62.9831   89.8951   13.4753 C.3     1  UNL1        0.1202
     36 C          63.7306   90.8895   12.6372 C.ar    1  UNL1       -0.0023
     37 C          64.8202   91.7184   13.2502 C.ar    1  UNL1       -0.0026
     38 C          65.5677   92.7128   12.4121 C.ar    1  UNL1       -0.0003
     39 C          65.2256   92.8783   10.9611 C.ar    1  UNL1       -0.0000
     40 C          64.1360   92.0494   10.3481 C.ar    1  UNL1       -0.0003
     41 C          63.3885   91.0550   11.1862 C.ar    1  UNL1       -0.0026
     42 C          65.9731   93.8727   10.1230 C.ar    1  UNL1        0.0001
     43 C          65.5025   95.2950   10.0485 C.ar    1  UNL1        0.0009
     44 C          66.2499   96.2894    9.2104 C.ar    1  UNL1        0.0114
     45 C          67.4680   95.8616    8.4469 C.ar    1  UNL1        0.0577
     46 CL         68.2156   96.8560    7.6087 Cl      1  UNL1       -0.0822
     47 C          67.9387   94.4393    8.5213 C.ar    1  UNL1        0.0114
     48 C          67.1912   93.4448    9.3594 C.ar    1  UNL1        0.0009
@<TRIPOS>BOND
     1    10    11    1
     2    11    12   ar
     3    12    13   ar
     4    13     9    1
     5     9     2    1
     6     2     3   ar
     7     3     4   ar
     8     4     1    1
     9     1    25    1
    10    25    26    2
    11    25    27   am
    12    27    28    1
    13    28    29    1
    14    29    30    1
    15    30    31    1
    16    31    32    1
    17    32    33    1
    18    33    34    1
    19    27    35    1
    20    35    36    1
    21    36    37   ar
    22    37    38   ar
    23    38    39   ar
    24    39    42    1
    25    42    43   ar
    26    43    44   ar
    27    44    45   ar
    28    45    46    1
    29    45    47   ar
    30    47    48   ar
    31    39    40   ar
    32    40    41   ar
    33     4     5   ar
    34     5    16    1
    35    16    17    1
    36    17    18    1
    37    18    19   ar
    38    19    20   ar
    39    20    21   ar
    40    21    22    1
    41    21    23   ar
    42    23    24   ar
    43     5     6   ar
    44     6     7   ar
    45     7     8    2
    46    13    14   ar
    47    14    15   ar
    48    15    11   ar
    49     7     2   ar
    50    34    30    1
    51    41    36   ar
    52    24    18   ar
    53    48    42   ar
@<TRIPOS>MOLECULE
*****
 48 53 0 0 0
SMALL
GASTEIGER

@<TRIPOS>ATOM
      1 C          60.2959   87.5005   11.2335 C.3     1  UNL1        0.1934
      2 C          62.5607   84.9432    9.2134 C.ar    1  UNL1        0.0574
      3 C          61.9465   85.6961   10.3561 C.ar    1  UNL1        0.0786
      4 N          60.9102   86.7476   10.0907 N.ar    1  UNL1       -0.2979
      5 C          60.4881   87.0461    8.6827 C.ar    1  UNL1        0.1750
      6 N          61.1022   86.2932    7.5399 N.ar    1  UNL1       -0.1847
      7 C          62.1385   85.2418    7.8053 C.ar    1  UNL1        0.2786
      8 O          62.7528   84.4888    6.6625 O.2     1  UNL1       -0.2654
      9 C          63.5970   83.8917    9.4787 C.3     1  UNL1        0.0622
     10 C          61.9254   81.3426   13.7901 C.3     1  UNL1        0.1537
     11 N          62.8166   81.9653   12.7566 N.ar    1  UNL1       -0.2477
     12 C          62.3647   82.6767   11.5158 C.ar    1  UNL1        0.0927
     13 C          63.5850   83.1370   10.7749 C.ar    1  UNL1        0.0220
     14 C          64.7912   82.7100   11.5578 C.ar    1  UNL1        0.1177
     15 N          64.3163   81.9859   12.7826 N.ar    1  UNL1       -0.1679
     16 S          59.4517   88.0977    8.4173 S.3     1  UNL1       -0.0724
     17 C          58.8292   88.2109    7.0573 C.3     1  UNL1        0.0913
     18 C          58.9994   89.4681    6.2569 C.ar    1  UNL1       -0.0108
     19 C          60.3680   89.9005    5.8215 C.ar    1  UNL1       -0.0011
     20 C          60.5381   91.1577    5.0211 C.ar    1  UNL1        0.0293
     21 C          59.3395   91.9824    4.6562 C.ar    1  UNL1        0.1401
     22 F          59.5096   93.2396    3.8559 F       1  UNL1       -0.2042
     23 C          57.9708   91.5500    5.0917 C.ar    1  UNL1        0.0293
     24 C          57.8007   90.2929    5.8921 C.ar    1  UNL1       -0.0011
     25 C          60.5933   88.9593   11.4166 C.2     1  UNL1        0.2491
     26 O          59.5028   89.9746   11.2429 O.2     1  UNL1       -0.2727
     27 N          61.9811   89.4029   11.7734 N.am    1  UNL1       -0.2724
     28 C          63.0716   88.3876   11.9470 C.3     1  UNL1        0.1111
     29 C          63.8601   88.3446   13.2223 C.3     1  UNL1        0.0939
     30 N          63.8290   87.1159   14.0822 N.3     1  UNL1       -0.2712
     31 C          63.8424   87.0887   15.5819 C.3     1  UNL1        0.0722
     32 C          63.8008   85.6547   16.0199 C.3     1  UNL1        0.0188
     33 C          63.7617   84.7956   14.7909 C.3     1  UNL1        0.0188
     34 C          63.7791   85.6987   13.5933 C.3     1  UNL1        0.0722
     35 C          62.2784   90.8616   11.9565 C.3     1  UNL1        0.1202
     36 C          63.5114   91.2886   12.6964 C.ar    1  UNL1       -0.0023
     37 C          63.6399   91.0084   14.1644 C.ar    1  UNL1       -0.0026
     38 C          64.8728   91.4353   14.9044 C.ar    1  UNL1       -0.0003
     39 C          65.9773   92.1425   14.1764 C.ar    1  UNL1       -0.0000
     40 C          65.8488   92.4227   12.7084 C.ar    1  UNL1       -0.0003
     41 C          64.6159   91.9958   11.9684 C.ar    1  UNL1       -0.0026
     42 C          67.2103   92.5694   14.9163 C.ar    1  UNL1        0.0001
     43 C          68.0438   91.5507   15.6355 C.ar    1  UNL1        0.0009
     44 C          69.2768   91.9776   16.3755 C.ar    1  UNL1        0.0114
     45 C          69.6762   93.4232   16.3962 C.ar    1  UNL1        0.0577
     46 CL         70.9092   93.8502   17.1362 Cl      1  UNL1       -0.0822
     47 C          68.8426   94.4420   15.6770 C.ar    1  UNL1        0.0114
     48 C          67.6096   94.0151   14.9371 C.ar    1  UNL1        0.0009
@<TRIPOS>BOND
     1    10    11    1
     2    11    12   ar
     3    12    13   ar
     4    13     9    1
     5     9     2    1
     6     2     3   ar
     7     3     4   ar
     8     4     1    1
     9     1    25    1
    10    25    26    2
    11    25    27   am
    12    27    28    1
    13    28    29    1
    14    29    30    1
    15    30    31    1
    16    31    32    1
    17    32    33    1
    18    33    34    1
    19    27    35    1
    20    35    36    1
    21    36    37   ar
    22    37    38   ar
    23    38    39   ar
    24    39    42    1
    25    42    43   ar
    26    43    44   ar
    27    44    45   ar
    28    45    46    1
    29    45    47   ar
    30    47    48   ar
    31    39    40   ar
    32    40    41   ar
    33     4     5   ar
    34     5    16    1
    35    16    17    1
    36    17    18    1
    37    18    19   ar
    38    19    20   ar
    39    20    21   ar
    40    21    22    1
    41    21    23   ar
    42    23    24   ar
    43     5     6   ar
    44     6     7   ar
    45     7     8    2
    46    13    14   ar
    47    14    15   ar
    48    15    11   ar
    49     7     2   ar
    50    34    30    1
    51    41    36   ar
    52    24    18   ar
    53    48    42   ar
