@<TRIPOS>MOLECULE
*****
 46 49 0 0 0
SMALL
GASTEIGER

@<TRIPOS>ATOM
      1 C          63.8488   90.8249   12.5038 C.3     1  UNL1        0.0736
      2 C          63.1413   90.8254   11.1811 C.3     1  UNL1        0.0217
      3 C          62.7250   89.4166   10.8777 C.3     1  UNL1        0.0282
      4 C          63.1752   88.5456   12.0129 C.3     1  UNL1        0.1348
      5 C          63.0423   87.0722   12.2612 C.ar    1  UNL1       -0.0061
      6 C          62.3478   86.2018   11.2562 C.ar    1  UNL1       -0.0032
      7 C          62.2150   84.7285   11.5046 C.ar    1  UNL1       -0.0015
      8 C          62.7767   84.1256   12.7579 C.ar    1  UNL1        0.0232
      9 C          63.4713   84.9960   13.7629 C.ar    1  UNL1       -0.0057
     10 C          63.6041   86.4692   13.5146 C.ar    1  UNL1       -0.0248
     11 C          64.2986   87.3397   14.5196 C.3     1  UNL1        0.0262
     12 C          64.4314   88.8130   14.2712 C.3     1  UNL1        0.0083
     13 C          63.8697   89.4159   13.0178 C.3     1  UNL1        0.0429
     14 C          65.6428   92.7006   12.6199 C.2     1  UNL1        0.2482
     15 O          66.2687   92.1798   11.3601 O.2     1  UNL1       -0.2725
     16 N          64.4329   92.0232   13.1918 N.am    1  UNL1       -0.3040
     17 H          64.0221   92.3650   14.0186 H       1  UNL1        0.1494
     18 C          66.8110   95.0970   13.9956 C.3     1  UNL1        0.0406
     19 C          66.2269   93.8988   13.3077 C.3     1  UNL1        0.1782
     20 O          66.1391   94.6763   12.0280 O.3     1  UNL1       -0.3765
     21 H          66.4763   95.5744   12.1715 H       1  UNL1        0.2109
     22 C          66.3147   93.1213   14.5874 C.3     1  UNL1        0.1864
     23 S          67.6481   92.8895   15.2342 S.O2    1  UNL1       -0.0054
     24 C          68.9814   92.6578   15.8810 C.3     1  UNL1        0.1762
     25 O          67.0412   93.1542   16.5802 O.2     1  UNL1       -0.1728
     26 O          68.2551   92.6248   13.8882 O.2     1  UNL1       -0.1728
     27 S          62.4585   87.8053   10.9227 S.O2    1  UNL1        0.0090
     28 O          63.0404   87.5853   10.4242 O.2     1  UNL1       -0.1684
     29 O          61.1514   88.0473   11.6175 O.2     1  UNL1       -0.1684
     30 C          61.7419   87.0650    9.8325 C.ar    1  UNL1        0.1060
     31 C          62.5128   86.1945    8.8850 C.ar    1  UNL1        0.0207
     32 C          61.7963   85.4542    7.7948 C.ar    1  UNL1        0.0310
     33 C          60.3088   85.5844    7.6522 C.ar    1  UNL1        0.1402
     34 F          59.5922   84.8441    6.5620 F       1  UNL1       -0.2042
     35 C          59.5378   86.4549    8.5998 C.ar    1  UNL1        0.0310
     36 C          60.2544   87.1952    9.6899 C.ar    1  UNL1        0.0207
     37 C          62.6439   82.6522   13.0063 C.3     1  UNL1        0.3242
     38 F          61.8279   82.9327   14.2332 F       1  UNL1       -0.2176
     39 C          62.5110   81.1789   13.2546 C.3     1  UNL1        0.4363
     40 F          62.3782   79.7056   13.5030 F       1  UNL1       -0.1666
     41 F          61.0192   81.3233   13.3132 F       1  UNL1       -0.1666
     42 F          63.9756   80.8560   13.2268 F       1  UNL1       -0.1666
     43 C          63.4599   82.3718   11.7793 C.3     1  UNL1        0.4363
     44 F          64.2760   82.0914   10.5523 F       1  UNL1       -0.1666
     45 F          62.4424   81.5266   11.0722 F       1  UNL1       -0.1666
     46 F          64.7494   83.0969   12.0275 F       1  UNL1       -0.1666
@<TRIPOS>BOND
     1    19    18    1
     2    19    20    1
     3    19    22    1
     4    22    23    1
     5    23    24    1
     6    23    25    2
     7    23    26    2
     8    19    14    1
     9    14    15    2
    10    14    16   am
    11     1    16    1
    12     1     2    1
    13     2     3    1
    14     3     4    1
    15     4    27    1
    16    27    28    2
    17    27    29    2
    18    27    30    1
    19    30    31   ar
    20    31    32   ar
    21    32    33   ar
    22    33    34    1
    23    33    35   ar
    24    35    36   ar
    25     4     5    1
    26     5     6   ar
    27     6     7   ar
    28     7     8   ar
    29     8    37    1
    30    37    38    1
    31    37    39    1
    32    39    40    1
    33    39    41    1
    34    39    42    1
    35    37    43    1
    36    43    44    1
    37    43    45    1
    38    43    46    1
    39     8     9   ar
    40     9    10   ar
    41    10    11    1
    42    11    12    1
    43    13    12    1
    44    13     1    1
    45    13     4    1
    46    36    30   ar
    47    10     5   ar
    48    20    21    1
    49    16    17    1
@<TRIPOS>MOLECULE
*****
 46 49 0 0 0
SMALL
GASTEIGER

@<TRIPOS>ATOM
      1 C          63.7659   91.4272   11.5980 C.3     1  UNL1        0.0736
      2 C          63.0698   91.2096   10.2872 C.3     1  UNL1        0.0217
      3 C          62.6806   89.7634   10.2035 C.3     1  UNL1        0.0282
      4 C          63.1363   89.0872   11.4625 C.3     1  UNL1        0.1348
      5 C          63.0270   87.6679   11.9356 C.ar    1  UNL1       -0.0061
      6 C          62.3563   86.6397   11.0738 C.ar    1  UNL1       -0.0032
      7 C          62.2471   85.2204   11.5468 C.ar    1  UNL1       -0.0015
      8 C          62.8086   84.8295   12.8817 C.ar    1  UNL1        0.0232
      9 C          63.4793   85.8577   13.7435 C.ar    1  UNL1       -0.0057
     10 C          63.5885   87.2770   13.2704 C.ar    1  UNL1       -0.0248
     11 C          64.2593   88.3053   14.1323 C.3     1  UNL1        0.0262
     12 C          64.3685   89.7245   13.6592 C.3     1  UNL1        0.0083
     13 C          63.8070   90.1155   12.3244 C.3     1  UNL1        0.0429
     14 C          65.4839   93.3651   11.3902 C.2     1  UNL1        0.2482
     15 O          66.0875   92.7011   10.1882 O.2     1  UNL1       -0.2725
     16 N          64.3231   92.7282   12.0951 N.am    1  UNL1       -0.3040
     17 H          63.9270   93.1640   12.8840 H       1  UNL1        0.1494
     18 C          66.5984   95.9670   12.3841 C.3     1  UNL1        0.0406
     19 C          66.0412   94.6660   11.8872 C.3     1  UNL1        0.1782
     20 O          66.5553   93.9764   13.1160 O.3     1  UNL1       -0.3765
     21 H          67.0059   94.6209   13.6839 H       1  UNL1        0.2109
     22 C          65.5270   95.3557   10.6584 C.3     1  UNL1        0.1864
     23 S          66.4869   96.0017    9.7038 S.O2    1  UNL1       -0.0054
     24 C          67.4467   96.6478    8.7493 C.3     1  UNL1        0.1762
     25 O          65.3767   96.8541    9.1644 O.2     1  UNL1       -0.1728
     26 O          67.5971   95.1494   10.2433 O.2     1  UNL1       -0.1728
     27 S          62.4419   88.1739   10.4963 S.O2    1  UNL1        0.0090
     28 O          63.0199   87.9462    9.9968 O.2     1  UNL1       -0.1684
     29 O          61.1479   88.3876   11.2241 O.2     1  UNL1       -0.1684
     30 C          61.7476   87.2604    9.5300 C.ar    1  UNL1        0.1060
     31 C          60.2566   87.3226    9.3784 C.ar    1  UNL1        0.0207
     32 C          59.5623   86.4092    8.4122 C.ar    1  UNL1        0.0310
     33 C          60.3590   85.4337    7.5976 C.ar    1  UNL1        0.1402
     34 F          59.6646   84.5202    6.6313 F       1  UNL1       -0.2042
     35 C          61.8500   85.3715    7.7492 C.ar    1  UNL1        0.0310
     36 C          62.5443   86.2849    8.7154 C.ar    1  UNL1        0.0207
     37 C          62.6993   83.4102   13.3547 C.3     1  UNL1        0.3242
     38 F          62.0723   83.8842   14.6322 F       1  UNL1       -0.2176
     39 C          62.5901   81.9909   13.8278 C.3     1  UNL1        0.4363
     40 F          62.4809   80.5716   14.3008 F       1  UNL1       -0.1666
     41 F          61.1494   82.2185   14.1777 F       1  UNL1       -0.1666
     42 F          64.0068   81.5921   13.5382 F       1  UNL1       -0.1666
     43 C          63.3264   82.9361   12.0772 C.3     1  UNL1        0.4363
     44 F          63.9535   82.4620   10.7997 F       1  UNL1       -0.1666
     45 F          62.1760   82.0945   11.6102 F       1  UNL1       -0.1666
     46 F          64.6775   83.5877   12.0724 F       1  UNL1       -0.1666
@<TRIPOS>BOND
     1    19    18    1
     2    19    20    1
     3    19    22    1
     4    22    23    1
     5    23    24    1
     6    23    25    2
     7    23    26    2
     8    19    14    1
     9    14    15    2
    10    14    16   am
    11     1    16    1
    12     1     2    1
    13     2     3    1
    14     3     4    1
    15     4    27    1
    16    27    28    2
    17    27    29    2
    18    27    30    1
    19    30    31   ar
    20    31    32   ar
    21    32    33   ar
    22    33    34    1
    23    33    35   ar
    24    35    36   ar
    25     4     5    1
    26     5     6   ar
    27     6     7   ar
    28     7     8   ar
    29     8    37    1
    30    37    38    1
    31    37    39    1
    32    39    40    1
    33    39    41    1
    34    39    42    1
    35    37    43    1
    36    43    44    1
    37    43    45    1
    38    43    46    1
    39     8     9   ar
    40     9    10   ar
    41    10    11    1
    42    11    12    1
    43    13    12    1
    44    13     1    1
    45    13     4    1
    46    36    30   ar
    47    10     5   ar
    48    20    21    1
    49    16    17    1
