@<TRIPOS>MOLECULE
*****
 45 51 0 0 0
SMALL
GASTEIGER

@<TRIPOS>ATOM
      1 C          63.6118   84.1416   12.4113 C.ar    1  UNL1        0.0907
      2 C          62.6806   83.3246   11.5655 C.ar    1  UNL1        0.1496
      3 O          61.7572   84.2661   10.8508 O.2     1  UNL1       -0.4533
      4 C          62.1177   85.6649   11.2547 C.ar    1  UNL1        0.1467
      5 C          61.5503   86.9988   10.8690 C.ar    1  UNL1        0.0536
      6 C          62.1292   88.2558   11.4477 C.ar    1  UNL1        0.0730
      7 C          63.2754   88.1789   12.4122 C.ar    1  UNL1        0.0327
      8 C          63.8428   86.8450   12.7980 C.ar    1  UNL1        0.0061
      9 C          63.2640   85.5880   12.2193 C.ar    1  UNL1        0.0420
     10 C          63.8544   89.4359   12.9910 C.ar    1  UNL1        0.0827
     11 C          63.8598   89.6445   14.4764 C.ar    1  UNL1        0.0207
     12 C          64.4386   90.9014   15.0552 C.ar    1  UNL1        0.0223
     13 C          65.0121   91.9497   14.1485 C.ar    1  UNL1        0.1021
     14 N          65.5910   93.2067   14.7273 N.ar    1  UNL1       -0.2235
     15 C          66.1644   94.2551   13.8206 C.ar    1  UNL1        0.1828
     16 N          66.1590   94.0465   12.3352 N.ar    1  UNL1       -0.2877
     17 C          66.6498   94.8961   11.2006 C.ar    1  UNL1        0.0676
     18 C          67.3121   96.2416   11.1676 C.ar    1  UNL1        0.0177
     19 C          67.6988   96.8552    9.8546 C.ar    1  UNL1        0.0038
     20 C          67.4232   96.1233    8.5746 C.ar    1  UNL1        0.0297
     21 C          66.7610   94.7778    8.6076 C.ar    1  UNL1        0.1415
     22 F          66.4854   94.0459    7.3275 F       1  UNL1       -0.2041
     23 C          66.3743   94.1642    9.9206 C.ar    1  UNL1        0.0451
     24 C          65.7132   92.8623   10.2641 C.ar    1  UNL1        0.0228
     25 C          65.5802   92.7896   11.7564 C.ar    1  UNL1        0.0846
     26 C          65.0067   91.7412   12.6631 C.ar    1  UNL1        0.1149
     27 N          64.4278   90.4842   12.0843 N.ar    1  UNL1       -0.2423
     28 C          62.6740   81.8287   11.4542 C.ar    1  UNL1        0.0349
     29 C          62.3159   80.9896   12.6448 C.ar    1  UNL1        0.0053
     30 C          62.3092   79.4938   12.5335 C.ar    1  UNL1        0.0297
     31 C          62.6607   78.8371   11.2315 C.ar    1  UNL1        0.1401
     32 F          62.6541   77.3412   11.1201 F       1  UNL1       -0.2042
     33 C          63.0188   79.6762   10.0409 C.ar    1  UNL1        0.0297
     34 C          63.0255   81.1720   10.1522 C.ar    1  UNL1        0.0053
     35 C          66.6808   84.0165   14.9245 C.3     1  UNL1        0.1109
     36 N          65.5927   84.5519   14.0416 N.am    1  UNL1       -0.2991
     37 C          64.6999   83.6063   13.2942 C.2     1  UNL1        0.2490
     38 O          64.8952   82.1252   13.4297 O.2     1  UNL1       -0.2700
     39 H          65.4646   85.5240   13.9527 H       1  UNL1        0.1498
     40 N          61.5619   89.5897   11.0620 N.pl3   1  UNL1       -0.1924
     41 C          62.3872   90.5525   10.2608 C.3     1  UNL1        0.1388
     42 S          60.1691   89.9609   11.4774 S.O2    1  UNL1        0.0588
     43 C          58.7764   90.3320   11.8929 C.3     1  UNL1        0.1999
     44 O          59.7981   90.1773   10.0403 O.2     1  UNL1       -0.1542
     45 O          60.5401   89.7444   12.9145 O.2     1  UNL1       -0.1542
@<TRIPOS>BOND
     1    35    36    1
     2    36    37   am
     3    37    38    2
     4    37     1    1
     5     1     2   ar
     6     2    28    1
     7    28    29   ar
     8    29    30   ar
     9    30    31   ar
    10    31    32    1
    11    31    33   ar
    12    33    34   ar
    13     2     3   ar
    14     3     4   ar
    15     4     5   ar
    16     5     6   ar
    17     6    40    1
    18    40    41    1
    19    40    42    1
    20    42    43    1
    21    42    44    2
    22    42    45    2
    23     6     7   ar
    24     7    10    1
    25    10    11   ar
    26    11    12   ar
    27    12    13   ar
    28    13    14   ar
    29    14    15   ar
    30    15    16   ar
    31    16    17   ar
    32    17    18   ar
    33    18    19   ar
    34    19    20   ar
    35    20    21   ar
    36    21    22    1
    37    21    23   ar
    38    23    24   ar
    39    24    25   ar
    40    25    26   ar
    41    26    27   ar
    42     7     8   ar
    43     8     9   ar
    44     9     1   ar
    45    34    28   ar
    46     9     4   ar
    47    27    10   ar
    48    26    13   ar
    49    25    16   ar
    50    23    17   ar
    51    36    39    1
