@<TRIPOS>MOLECULE
*****
 35 38 0 0 0
SMALL
GASTEIGER

@<TRIPOS>ATOM
      1 C          64.0688   88.4990   15.3396 C.ar    1  UNL1        0.0495
      2 C          63.4927   87.8989   16.5877 C.ar    1  UNL1        0.0455
      3 C          63.1183   86.4466   16.6179 C.ar    1  UNL1        0.1623
      4 F          62.5422   85.8464   17.8661 F       1  UNL1       -0.2026
      5 C          63.3202   85.5945   15.4001 C.ar    1  UNL1        0.1798
      6 C          63.8963   86.1947   14.1519 C.ar    1  UNL1        0.1623
      7 F          64.0981   85.3427   12.9341 F       1  UNL1       -0.2026
      8 C          64.2706   87.6469   14.1217 C.ar    1  UNL1        0.0455
      9 S          62.9458   84.1423   15.4303 S.O2    1  UNL1        0.0791
     10 O          61.4972   84.5133   15.3129 O.2     1  UNL1       -0.1498
     11 O          64.3945   83.7714   15.5477 O.2     1  UNL1       -0.1498
     12 N          62.5714   82.6901   15.4606 N.pl3   1  UNL1       -0.1983
     13 H          62.2928   82.2711   16.3068 H       1  UNL1        0.1753
     14 C          62.6216   81.8763   14.2016 C.ar    1  UNL1        0.1542
     15 C          62.7238   82.4165   12.8060 C.ar    1  UNL1        0.0725
     16 S          62.7437   81.2535   11.8589 S.2     1  UNL1       -0.0625
     17 C          62.6538   79.9943   12.6692 C.ar    1  UNL1        0.1360
     18 N          62.5783   80.3792   14.1171 N.ar    1  UNL1       -0.2203
     19 N          64.4431   89.9512   15.3093 N.pl3   1  UNL1       -0.3289
     20 H          65.2413   90.2640   15.7934 H       1  UNL1        0.1471
     21 C          63.6014   90.9269   14.5415 C.3     1  UNL1        0.1163
     22 C          63.2620   90.8601   11.9665 C.ar    1  UNL1       -0.0063
     23 C          63.6769   91.2879   10.5901 C.ar    1  UNL1       -0.0030
     24 C          64.8462   92.2103   10.4120 C.ar    1  UNL1        0.0020
     25 C          65.6006   92.7050   11.6105 C.ar    1  UNL1        0.0293
     26 C          65.1857   92.2772   12.9869 C.ar    1  UNL1        0.1375
     27 F          65.9401   92.7718   14.1854 F       1  UNL1       -0.2045
     28 C          64.0164   91.3547   13.1650 C.ar    1  UNL1        0.0222
     29 C          62.0926   89.9376   12.1447 C.3     1  UNL1        0.0989
     30 C          62.3090   87.6443   10.9432 C.3     1  UNL1        0.0161
     31 C          61.2324   88.2687   10.1059 C.3     1  UNL1        0.0471
     32 C          61.1745   87.0324    9.2584 C.3     1  UNL1        0.0161
     33 C          60.1558   88.8932    9.2686 C.3     1  UNL1        0.0320
     34 C          60.2138   90.1294   10.1161 C.3     1  UNL1        0.0736
     35 N          61.2904   89.5050   10.9534 N.3     1  UNL1       -0.2714
@<TRIPOS>BOND
     1    30    31    1
     2    31    32    1
     3    31    33    1
     4    33    34    1
     5    34    35    1
     6    35    29    1
     7    29    22    1
     8    22    23   ar
     9    23    24   ar
    10    24    25   ar
    11    25    26   ar
    12    26    27    1
    13    26    28   ar
    14    28    21    1
    15    21    19    1
    16    19     1    1
    17     1     2   ar
    18     2     3   ar
    19     3     4    1
    20     3     5   ar
    21     5     9    1
    22     9    10    2
    23     9    11    2
    24     9    12    1
    25    12    14    1
    26    14    15   ar
    27    15    16   ar
    28    16    17   ar
    29    17    18   ar
    30     5     6   ar
    31     6     7    1
    32     6     8   ar
    33    35    31    1
    34    28    22   ar
    35     8     1   ar
    36    18    14   ar
    37    19    20    1
    38    12    13    1
@<TRIPOS>MOLECULE
*****
 35 38 0 0 0
SMALL
GASTEIGER

@<TRIPOS>ATOM
      1 C          62.2218   88.4793   11.1046 C.ar    1  UNL1        0.0495
      2 C          63.0533   88.4307   12.3521 C.ar    1  UNL1        0.0455
      3 C          63.9025   89.6068   12.7336 C.ar    1  UNL1        0.1623
      4 F          64.7340   89.5582   13.9812 F       1  UNL1       -0.2026
      5 C          63.9203   90.8315   11.8677 C.ar    1  UNL1        0.1798
      6 C          63.0888   90.8801   10.6202 C.ar    1  UNL1        0.1623
      7 F          63.1066   92.1047    9.7543 F       1  UNL1       -0.2026
      8 C          62.2396   89.7040   10.2386 C.ar    1  UNL1        0.0455
      9 S          64.7695   92.0075   12.2493 S.O2    1  UNL1        0.0791
     10 O          64.1261   92.0326   13.6040 O.2     1  UNL1       -0.1498
     11 O          65.4130   91.9824   10.8946 O.2     1  UNL1       -0.1498
     12 N          65.6188   93.1836   12.6310 N.pl3   1  UNL1       -0.1983
     13 H          65.4322   94.0708   12.2470 H       1  UNL1        0.1753
     14 C          66.7522   93.0080   13.5976 C.ar    1  UNL1        0.1542
     15 C          66.8310   93.5878   14.9788 C.ar    1  UNL1        0.0725
     16 S          68.1334   93.1599   15.5877 S.2     1  UNL1       -0.0625
     17 C          68.8596   92.3156   14.5828 C.ar    1  UNL1        0.1360
     18 N          68.0060   92.2217   13.3528 N.ar    1  UNL1       -0.2203
     19 N          61.3726   87.3032   10.7230 N.pl3   1  UNL1       -0.3289
     20 H          60.7499   87.3714    9.9634 H       1  UNL1        0.1471
     21 C          61.4719   86.0232   11.4986 C.3     1  UNL1        0.1163
     22 C          63.0574   84.0647   12.1319 C.ar    1  UNL1       -0.0063
     23 C          64.0561   83.0201   11.7304 C.ar    1  UNL1       -0.0030
     24 C          64.4682   82.8893   10.2941 C.ar    1  UNL1        0.0020
     25 C          63.8816   83.8031    9.2593 C.ar    1  UNL1        0.0293
     26 C          62.8828   84.8477    9.6608 C.ar    1  UNL1        0.1375
     27 F          62.2962   85.7615    8.6260 F       1  UNL1       -0.2045
     28 C          62.4707   84.9785   11.0971 C.ar    1  UNL1        0.0222
     29 C          62.6452   84.1956   13.5683 C.3     1  UNL1        0.0989
     30 C          61.9651   84.7451   16.0148 C.3     1  UNL1        0.0161
     31 C          63.1554   85.6469   15.8738 C.3     1  UNL1        0.0471
     32 C          62.9612   86.1235   17.2827 C.3     1  UNL1        0.0161
     33 C          64.3458   86.5486   15.7328 C.3     1  UNL1        0.0320
     34 C          64.5400   86.0720   14.3238 C.3     1  UNL1        0.0736
     35 N          63.3496   85.1703   14.4648 N.3     1  UNL1       -0.2714
@<TRIPOS>BOND
     1    30    31    1
     2    31    32    1
     3    31    33    1
     4    33    34    1
     5    34    35    1
     6    35    29    1
     7    29    22    1
     8    22    23   ar
     9    23    24   ar
    10    24    25   ar
    11    25    26   ar
    12    26    27    1
    13    26    28   ar
    14    28    21    1
    15    21    19    1
    16    19     1    1
    17     1     2   ar
    18     2     3   ar
    19     3     4    1
    20     3     5   ar
    21     5     9    1
    22     9    10    2
    23     9    11    2
    24     9    12    1
    25    12    14    1
    26    14    15   ar
    27    15    16   ar
    28    16    17   ar
    29    17    18   ar
    30     5     6   ar
    31     6     7    1
    32     6     8   ar
    33    35    31    1
    34    28    22   ar
    35     8     1   ar
    36    18    14   ar
    37    19    20    1
    38    12    13    1
@<TRIPOS>MOLECULE
*****
 35 38 0 0 0
SMALL
GASTEIGER

@<TRIPOS>ATOM
      1 C          63.6626   88.6666   12.8575 C.ar    1  UNL1        0.0495
      2 C          64.2540   88.3360   14.1958 C.ar    1  UNL1        0.0455
      3 C          64.2309   86.9225   14.6974 C.ar    1  UNL1        0.1623
      4 F          64.8223   86.5918   16.0357 F       1  UNL1       -0.2026
      5 C          63.6164   85.8397   13.8608 C.ar    1  UNL1        0.1798
      6 C          63.0250   86.1704   12.5225 C.ar    1  UNL1        0.1623
      7 F          62.4105   85.0876   11.6859 F       1  UNL1       -0.2026
      8 C          63.0481   87.5838   12.0209 C.ar    1  UNL1        0.0455
      9 S          63.5933   84.4263   14.3624 S.O2    1  UNL1        0.0791
     10 O          62.1470   84.5801   14.7292 O.2     1  UNL1       -0.1498
     11 O          65.0396   84.2725   13.9956 O.2     1  UNL1       -0.1498
     12 N          63.5702   83.0128   14.8641 N.pl3   1  UNL1       -0.1983
     13 H          63.8049   82.8189   15.8003 H       1  UNL1        0.1753
     14 C          63.1893   81.8949   13.9393 C.ar    1  UNL1        0.1542
     15 C          63.2843   81.9178   12.4425 C.ar    1  UNL1        0.0725
     16 S          62.8003   80.5949   11.9270 S.2     1  UNL1       -0.0625
     17 C          62.4062   79.7544   13.1053 C.ar    1  UNL1        0.1360
     18 N          62.6465   80.5579   14.3490 N.ar    1  UNL1       -0.2203
     19 N          63.6857   90.0801   12.3559 N.pl3   1  UNL1       -0.3289
     20 H          63.7643   90.2587   11.3909 H       1  UNL1        0.1471
     21 C          63.5891   91.2213   13.3245 C.3     1  UNL1        0.1163
     22 C          65.8057   92.5389   13.0069 C.ar    1  UNL1       -0.0063
     23 C          67.0528   93.1413   13.5829 C.ar    1  UNL1       -0.0030
     24 C          67.3304   93.0286   15.0526 C.ar    1  UNL1        0.0020
     25 C          66.3609   92.3134   15.9463 C.ar    1  UNL1        0.0293
     26 C          65.1138   91.7110   15.3703 C.ar    1  UNL1        0.1375
     27 F          64.1444   90.9958   16.2640 F       1  UNL1       -0.2045
     28 C          64.8362   91.8238   13.9006 C.ar    1  UNL1        0.0222
     29 C          65.5280   92.6517   11.5371 C.3     1  UNL1        0.0989
     30 C          66.0154   94.8920   10.3150 C.3     1  UNL1        0.0161
     31 C          67.1332   94.0555    9.7666 C.3     1  UNL1        0.0471
     32 C          67.6105   95.2244    8.9567 C.3     1  UNL1        0.0161
     33 C          68.2510   93.2190    9.2182 C.3     1  UNL1        0.0320
     34 C          67.7737   92.0501   10.0282 C.3     1  UNL1        0.0736
     35 N          66.6559   92.8866   10.5766 N.3     1  UNL1       -0.2714
@<TRIPOS>BOND
     1    30    31    1
     2    31    32    1
     3    31    33    1
     4    33    34    1
     5    34    35    1
     6    35    29    1
     7    29    22    1
     8    22    23   ar
     9    23    24   ar
    10    24    25   ar
    11    25    26   ar
    12    26    27    1
    13    26    28   ar
    14    28    21    1
    15    21    19    1
    16    19     1    1
    17     1     2   ar
    18     2     3   ar
    19     3     4    1
    20     3     5   ar
    21     5     9    1
    22     9    10    2
    23     9    11    2
    24     9    12    1
    25    12    14    1
    26    14    15   ar
    27    15    16   ar
    28    16    17   ar
    29    17    18   ar
    30     5     6   ar
    31     6     7    1
    32     6     8   ar
    33    35    31    1
    34    28    22   ar
    35     8     1   ar
    36    18    14   ar
    37    19    20    1
    38    12    13    1
@<TRIPOS>MOLECULE
*****
 35 38 0 0 0
SMALL
GASTEIGER

@<TRIPOS>ATOM
      1 C          63.6007   89.5866   15.4055 C.ar    1  UNL1        0.0495
      2 C          63.3014   88.8972   16.7037 C.ar    1  UNL1        0.0455
      3 C          63.2817   87.3988   16.7701 C.ar    1  UNL1        0.1623
      4 F          62.9824   86.7094   18.0682 F       1  UNL1       -0.2026
      5 C          63.5611   86.5898   15.5383 C.ar    1  UNL1        0.1798
      6 C          63.8604   87.2791   14.2401 C.ar    1  UNL1        0.1623
      7 F          64.1398   86.4701   13.0083 F       1  UNL1       -0.2026
      8 C          63.8801   88.7775   14.1737 C.ar    1  UNL1        0.0455
      9 S          63.5414   85.0914   15.6046 S.O2    1  UNL1        0.0791
     10 O          65.0306   85.0639   15.4280 O.2     1  UNL1       -0.1498
     11 O          62.0521   85.1189   15.7813 O.2     1  UNL1       -0.1498
     12 N          63.5216   83.5930   15.6710 N.pl3   1  UNL1       -0.1983
     13 H          63.7514   83.1344   16.5113 H       1  UNL1        0.1753
     14 C          63.1517   82.7933   14.4571 C.ar    1  UNL1        0.1542
     15 C          63.1737   83.2819   13.0390 C.ar    1  UNL1        0.0725
     16 S          62.7305   82.1552   12.1535 S.2     1  UNL1       -0.0625
     17 C          62.4346   80.9702   13.0243 C.ar    1  UNL1        0.1360
     18 N          62.6949   81.3645   14.4480 N.ar    1  UNL1       -0.2203
     19 N          63.6205   91.0850   15.3392 N.pl3   1  UNL1       -0.3289
     20 H          63.0636   91.6124   15.9564 H       1  UNL1        0.1471
     21 C          64.4886   91.7797   14.3324 C.3     1  UNL1        0.1163
     22 C          66.9505   92.1426   13.5855 C.ar    1  UNL1       -0.0063
     23 C          68.3754   92.4687   13.9219 C.ar    1  UNL1       -0.0030
     24 C          68.7634   92.7582   15.3416 C.ar    1  UNL1        0.0020
     25 C          67.7266   92.7215   16.4249 C.ar    1  UNL1        0.0293
     26 C          66.3017   92.3954   16.0885 C.ar    1  UNL1        0.1375
     27 F          65.2648   92.3587   17.1718 F       1  UNL1       -0.2045
     28 C          65.9136   92.1059   14.6688 C.ar    1  UNL1        0.0222
     29 C          66.5624   91.8531   12.1658 C.3     1  UNL1        0.0989
     30 C          68.1708   91.9678   10.1287 C.3     1  UNL1        0.0161
     31 C          67.3969   93.2344    9.9124 C.3     1  UNL1        0.0471
     32 C          68.2063   93.5188    8.6820 C.3     1  UNL1        0.0161
     33 C          66.6229   94.5009    9.6962 C.3     1  UNL1        0.0320
     34 C          65.8135   94.2164   10.9266 C.3     1  UNL1        0.0736
     35 N          66.5874   92.9498   11.1428 N.3     1  UNL1       -0.2714
@<TRIPOS>BOND
     1    30    31    1
     2    31    32    1
     3    31    33    1
     4    33    34    1
     5    34    35    1
     6    35    29    1
     7    29    22    1
     8    22    23   ar
     9    23    24   ar
    10    24    25   ar
    11    25    26   ar
    12    26    27    1
    13    26    28   ar
    14    28    21    1
    15    21    19    1
    16    19     1    1
    17     1     2   ar
    18     2     3   ar
    19     3     4    1
    20     3     5   ar
    21     5     9    1
    22     9    10    2
    23     9    11    2
    24     9    12    1
    25    12    14    1
    26    14    15   ar
    27    15    16   ar
    28    16    17   ar
    29    17    18   ar
    30     5     6   ar
    31     6     7    1
    32     6     8   ar
    33    35    31    1
    34    28    22   ar
    35     8     1   ar
    36    18    14   ar
    37    19    20    1
    38    12    13    1
@<TRIPOS>MOLECULE
*****
 35 38 0 0 0
SMALL
GASTEIGER

@<TRIPOS>ATOM
      1 C          61.9121   89.0773   11.5794 C.ar    1  UNL1        0.0495
      2 C          62.8674   88.9971   12.7331 C.ar    1  UNL1        0.0455
      3 C          63.9523   90.0224   12.8811 C.ar    1  UNL1        0.1623
      4 F          64.9076   89.9422   14.0348 F       1  UNL1       -0.2026
      5 C          64.0818   91.1278   11.8756 C.ar    1  UNL1        0.1798
      6 C          63.1265   91.2080   10.7219 C.ar    1  UNL1        0.1623
      7 F          63.2561   92.3135    9.7164 F       1  UNL1       -0.2026
      8 C          62.0416   90.1828   10.5738 C.ar    1  UNL1        0.0455
      9 S          65.1667   92.1530   12.0237 S.O2    1  UNL1        0.0791
     10 O          64.7140   92.4294   13.4268 O.2     1  UNL1       -0.1498
     11 O          65.6194   91.8767   10.6206 O.2     1  UNL1       -0.1498
     12 N          66.2516   93.1783   12.1718 N.pl3   1  UNL1       -0.1983
     13 H          66.7660   93.2332   13.0095 H       1  UNL1        0.1753
     14 C          66.5528   94.1199   11.0437 C.ar    1  UNL1        0.1542
     15 C          65.7275   95.3059   10.6409 C.ar    1  UNL1        0.0725
     16 S          66.3968   95.9598    9.4685 S.2     1  UNL1       -0.0625
     17 C          67.6358   95.1779    9.1467 C.ar    1  UNL1        0.1360
     18 N          67.7323   94.0407   10.1202 N.ar    1  UNL1       -0.2203
     19 N          60.8272   88.0521   11.4313 N.pl3   1  UNL1       -0.3289
     20 H          59.8845   88.3342   11.3984 H       1  UNL1        0.1471
     21 C          61.1785   86.5971   11.3334 C.3     1  UNL1        0.1163
     22 C          62.7539   85.0278    9.9898 C.ar    1  UNL1       -0.0063
     23 C          63.2060   84.4518    8.6806 C.ar    1  UNL1       -0.0030
     24 C          62.5346   84.8693    7.4059 C.ar    1  UNL1        0.0020
     25 C          61.4112   85.8627    7.4403 C.ar    1  UNL1        0.0293
     26 C          60.9592   86.4386    8.7495 C.ar    1  UNL1        0.1375
     27 F          59.8358   87.4320    8.7839 F       1  UNL1       -0.2045
     28 C          61.6306   86.0212   10.0242 C.ar    1  UNL1        0.0222
     29 C          63.4253   84.6104   11.2646 C.3     1  UNL1        0.0989
     30 C          62.6238   84.1528   13.6932 C.3     1  UNL1        0.0161
     31 C          62.6970   82.7449   13.1808 C.3     1  UNL1        0.0471
     32 C          62.2401   82.2354   14.5156 C.3     1  UNL1        0.0161
     33 C          62.7702   81.3371   12.6683 C.3     1  UNL1        0.0320
     34 C          63.2272   81.8467   11.3336 C.3     1  UNL1        0.0736
     35 N          63.1540   83.2545   11.8460 N.3     1  UNL1       -0.2714
@<TRIPOS>BOND
     1    30    31    1
     2    31    32    1
     3    31    33    1
     4    33    34    1
     5    34    35    1
     6    35    29    1
     7    29    22    1
     8    22    23   ar
     9    23    24   ar
    10    24    25   ar
    11    25    26   ar
    12    26    27    1
    13    26    28   ar
    14    28    21    1
    15    21    19    1
    16    19     1    1
    17     1     2   ar
    18     2     3   ar
    19     3     4    1
    20     3     5   ar
    21     5     9    1
    22     9    10    2
    23     9    11    2
    24     9    12    1
    25    12    14    1
    26    14    15   ar
    27    15    16   ar
    28    16    17   ar
    29    17    18   ar
    30     5     6   ar
    31     6     7    1
    32     6     8   ar
    33    35    31    1
    34    28    22   ar
    35     8     1   ar
    36    18    14   ar
    37    19    20    1
    38    12    13    1
@<TRIPOS>MOLECULE
*****
 35 38 0 0 0
SMALL
GASTEIGER

@<TRIPOS>ATOM
      1 C          62.1325   88.7891   11.3193 C.ar    1  UNL1        0.0495
      2 C          63.0254   88.7502   12.5240 C.ar    1  UNL1        0.0455
      3 C          63.9942   89.8674   12.7758 C.ar    1  UNL1        0.1623
      4 F          64.8871   89.8285   13.9804 F       1  UNL1       -0.2026
      5 C          64.0702   91.0233   11.8229 C.ar    1  UNL1        0.1798
      6 C          63.1773   91.0622   10.6183 C.ar    1  UNL1        0.1623
      7 F          63.2532   92.2182    9.6654 F       1  UNL1       -0.2026
      8 C          62.2084   89.9451   10.3664 C.ar    1  UNL1        0.0455
      9 S          65.0390   92.1404   12.0748 S.O2    1  UNL1        0.0791
     10 O          65.5781   91.9865   10.6835 O.2     1  UNL1       -0.1498
     11 O          64.4998   92.2944   13.4660 O.2     1  UNL1       -0.1498
     12 N          66.0079   93.2575   12.3266 N.pl3   1  UNL1       -0.1983
     13 H          66.3905   93.3843   13.2248 H       1  UNL1        0.1753
     14 C          66.3938   94.1816   11.2098 C.ar    1  UNL1        0.1542
     15 C          65.6199   95.3819   10.7513 C.ar    1  UNL1        0.0725
     16 S          66.3692   96.0097    9.6135 S.2     1  UNL1       -0.0625
     17 C          67.6063   95.1974    9.3689 C.ar    1  UNL1        0.1360
     18 N          67.6215   94.0675   10.3554 N.ar    1  UNL1       -0.2203
     19 N          61.1636   87.6720   11.0675 N.pl3   1  UNL1       -0.3289
     20 H          60.3882   87.8164   10.4784 H       1  UNL1        0.1471
     21 C          61.3763   86.3349   11.7132 C.3     1  UNL1        0.1163
     22 C          62.9712   84.2967   11.9419 C.ar    1  UNL1       -0.0063
     23 C          63.9078   83.3039   11.3198 C.ar    1  UNL1       -0.0030
     24 C          64.1864   83.3566    9.8469 C.ar    1  UNL1        0.0020
     25 C          63.5283   84.4020    8.9960 C.ar    1  UNL1        0.0293
     26 C          62.5916   85.3948    9.6181 C.ar    1  UNL1        0.1375
     27 F          61.9335   86.4402    8.7672 F       1  UNL1       -0.2045
     28 C          62.3130   85.3421   11.0910 C.ar    1  UNL1        0.0222
     29 C          62.6925   84.2441   13.4149 C.3     1  UNL1        0.0989
     30 C          62.0925   84.5899   15.9189 C.3     1  UNL1        0.0161
     31 C          63.2039   85.5883   15.7842 C.3     1  UNL1        0.0471
     32 C          63.0430   85.9621   17.2279 C.3     1  UNL1        0.0161
     33 C          64.3153   86.5866   15.6494 C.3     1  UNL1        0.0320
     34 C          64.4761   86.2127   14.2057 C.3     1  UNL1        0.0736
     35 N          63.3647   85.2143   14.3404 N.3     1  UNL1       -0.2714
@<TRIPOS>BOND
     1    30    31    1
     2    31    32    1
     3    31    33    1
     4    33    34    1
     5    34    35    1
     6    35    29    1
     7    29    22    1
     8    22    23   ar
     9    23    24   ar
    10    24    25   ar
    11    25    26   ar
    12    26    27    1
    13    26    28   ar
    14    28    21    1
    15    21    19    1
    16    19     1    1
    17     1     2   ar
    18     2     3   ar
    19     3     4    1
    20     3     5   ar
    21     5     9    1
    22     9    10    2
    23     9    11    2
    24     9    12    1
    25    12    14    1
    26    14    15   ar
    27    15    16   ar
    28    16    17   ar
    29    17    18   ar
    30     5     6   ar
    31     6     7    1
    32     6     8   ar
    33    35    31    1
    34    28    22   ar
    35     8     1   ar
    36    18    14   ar
    37    19    20    1
    38    12    13    1
@<TRIPOS>MOLECULE
*****
 35 38 0 0 0
SMALL
GASTEIGER

@<TRIPOS>ATOM
      1 C          61.7787   88.9863   11.4547 C.ar    1  UNL1        0.0495
      2 C          62.7010   88.8795   12.6329 C.ar    1  UNL1        0.0455
      3 C          63.7789   89.9026   12.8367 C.ar    1  UNL1        0.1623
      4 F          64.7011   89.7959   14.0148 F       1  UNL1       -0.2026
      5 C          63.9345   91.0324   11.8623 C.ar    1  UNL1        0.1798
      6 C          63.0122   91.1392   10.6842 C.ar    1  UNL1        0.1623
      7 F          63.1679   92.2689    9.7099 F       1  UNL1       -0.2026
      8 C          61.9344   90.1162   10.4804 C.ar    1  UNL1        0.0455
      9 S          65.0124   92.0554   12.0662 S.O2    1  UNL1        0.0791
     10 O          65.4756   91.8486   10.6546 O.2     1  UNL1       -0.1498
     11 O          64.5492   92.2622   13.4777 O.2     1  UNL1       -0.1498
     12 N          66.0903   93.0785   12.2699 N.pl3   1  UNL1       -0.1983
     13 H          66.1940   93.8187   11.6292 H       1  UNL1        0.1753
     14 C          67.0103   92.9737   13.4500 C.ar    1  UNL1        0.1542
     15 C          66.9207   93.7792   14.7122 C.ar    1  UNL1        0.0725
     16 S          68.0364   93.3484   15.6174 S.2     1  UNL1       -0.0625
     17 C          68.8157   92.2765   14.9147 C.ar    1  UNL1        0.1360
     18 N          68.1816   92.0449   13.5752 N.ar    1  UNL1       -0.2203
     19 N          60.7008   87.9633   11.2509 N.pl3   1  UNL1       -0.3289
     20 H          59.7621   88.2475   11.1662 H       1  UNL1        0.1471
     21 C          61.0532   86.5072   11.1760 C.3     1  UNL1        0.1163
     22 C          62.7554   84.9894    9.9315 C.ar    1  UNL1       -0.0063
     23 C          63.2892   84.4116    8.6543 C.ar    1  UNL1       -0.0030
     24 C          62.6545   84.7739    7.3444 C.ar    1  UNL1        0.0020
     25 C          61.4860   85.7139    7.3117 C.ar    1  UNL1        0.0293
     26 C          60.9522   86.2916    8.5889 C.ar    1  UNL1        0.1375
     27 F          59.7838   87.2317    8.5562 F       1  UNL1       -0.2045
     28 C          61.5870   85.9294    9.8988 C.ar    1  UNL1        0.0222
     29 C          63.3902   84.6272   11.2415 C.3     1  UNL1        0.0989
     30 C          62.6788   84.2462   13.7111 C.3     1  UNL1        0.0161
     31 C          62.6979   82.8254   13.2305 C.3     1  UNL1        0.0471
     32 C          62.2845   82.3585   14.5948 C.3     1  UNL1        0.0161
     33 C          62.7170   81.4046   12.7499 C.3     1  UNL1        0.0320
     34 C          63.1304   81.8716   11.3857 C.3     1  UNL1        0.0736
     35 N          63.1113   83.2924   11.8663 N.3     1  UNL1       -0.2714
@<TRIPOS>BOND
     1    30    31    1
     2    31    32    1
     3    31    33    1
     4    33    34    1
     5    34    35    1
     6    35    29    1
     7    29    22    1
     8    22    23   ar
     9    23    24   ar
    10    24    25   ar
    11    25    26   ar
    12    26    27    1
    13    26    28   ar
    14    28    21    1
    15    21    19    1
    16    19     1    1
    17     1     2   ar
    18     2     3   ar
    19     3     4    1
    20     3     5   ar
    21     5     9    1
    22     9    10    2
    23     9    11    2
    24     9    12    1
    25    12    14    1
    26    14    15   ar
    27    15    16   ar
    28    16    17   ar
    29    17    18   ar
    30     5     6   ar
    31     6     7    1
    32     6     8   ar
    33    35    31    1
    34    28    22   ar
    35     8     1   ar
    36    18    14   ar
    37    19    20    1
    38    12    13    1
@<TRIPOS>MOLECULE
*****
 35 38 0 0 0
SMALL
GASTEIGER

@<TRIPOS>ATOM
      1 C          63.2021   89.5961   12.2820 C.ar    1  UNL1        0.0495
      2 C          63.1097   90.5223   11.1057 C.ar    1  UNL1        0.0455
      3 C          64.0482   91.6871   10.9927 C.ar    1  UNL1        0.1623
      4 F          63.9558   92.6133    9.8164 F       1  UNL1       -0.2026
      5 C          65.0790   91.9256   12.0560 C.ar    1  UNL1        0.1798
      6 C          65.1714   90.9994   13.2322 C.ar    1  UNL1        0.1623
      7 F          66.2021   91.2379   14.2955 F       1  UNL1       -0.2026
      8 C          64.2330   89.8347   13.3453 C.ar    1  UNL1        0.0455
      9 S          66.0173   93.0903   11.9429 S.O2    1  UNL1        0.0791
     10 O          65.4468   93.6721   13.2022 O.2     1  UNL1       -0.1498
     11 O          66.5879   92.5084   10.6836 O.2     1  UNL1       -0.1498
     12 N          66.9558   94.2551   11.8299 N.pl3   1  UNL1       -0.1983
     13 H          67.6112   94.4302   12.5434 H       1  UNL1        0.1753
     14 C          66.8955   95.1531   10.6299 C.ar    1  UNL1        0.1542
     15 C          65.8537   96.1986   10.3625 C.ar    1  UNL1        0.0725
     16 S          66.1808   96.8549    9.0539 S.2     1  UNL1       -0.0625
     17 C          67.4248   96.2149    8.5126 C.ar    1  UNL1        0.1360
     18 N          67.8666   95.1631    9.4866 N.ar    1  UNL1       -0.2203
     19 N          62.2637   88.4314   12.3950 N.pl3   1  UNL1       -0.3289
     20 H          62.5533   87.6085   12.8513 H       1  UNL1        0.1471
     21 C          60.8842   88.5204   11.8128 C.3     1  UNL1        0.1163
     22 C          60.9505   86.5686   10.0992 C.ar    1  UNL1       -0.0063
     23 C          60.6826   86.0400    8.7213 C.ar    1  UNL1       -0.0030
     24 C          60.0803   86.9347    7.6788 C.ar    1  UNL1        0.0020
     25 C          59.7460   88.3580    8.0143 C.ar    1  UNL1        0.0293
     26 C          60.0140   88.8866    9.3923 C.ar    1  UNL1        0.1375
     27 F          59.6796   90.3098    9.7278 F       1  UNL1       -0.2045
     28 C          60.6162   87.9919   10.4347 C.ar    1  UNL1        0.0222
     29 C          61.5528   85.6739   11.1418 C.3     1  UNL1        0.0989
     30 C          62.7060   84.0059   12.7659 C.3     1  UNL1        0.0161
     31 C          63.4470   83.6829   11.5023 C.3     1  UNL1        0.0471
     32 C          64.2496   82.6504   12.2371 C.3     1  UNL1        0.0161
     33 C          64.1879   83.3599   10.2388 C.3     1  UNL1        0.0320
     34 C          63.3853   84.3924    9.5041 C.3     1  UNL1        0.0736
     35 N          62.6443   84.7154   10.7677 N.3     1  UNL1       -0.2714
@<TRIPOS>BOND
     1    30    31    1
     2    31    32    1
     3    31    33    1
     4    33    34    1
     5    34    35    1
     6    35    29    1
     7    29    22    1
     8    22    23   ar
     9    23    24   ar
    10    24    25   ar
    11    25    26   ar
    12    26    27    1
    13    26    28   ar
    14    28    21    1
    15    21    19    1
    16    19     1    1
    17     1     2   ar
    18     2     3   ar
    19     3     4    1
    20     3     5   ar
    21     5     9    1
    22     9    10    2
    23     9    11    2
    24     9    12    1
    25    12    14    1
    26    14    15   ar
    27    15    16   ar
    28    16    17   ar
    29    17    18   ar
    30     5     6   ar
    31     6     7    1
    32     6     8   ar
    33    35    31    1
    34    28    22   ar
    35     8     1   ar
    36    18    14   ar
    37    19    20    1
    38    12    13    1
@<TRIPOS>MOLECULE
*****
 35 38 0 0 0
SMALL
GASTEIGER

@<TRIPOS>ATOM
      1 C          63.8759   89.0473   15.4578 C.ar    1  UNL1        0.0495
      2 C          63.2242   88.4399   16.6646 C.ar    1  UNL1        0.0455
      3 C          62.9982   86.9584   16.7291 C.ar    1  UNL1        0.1623
      4 F          62.3465   86.3510   17.9359 F       1  UNL1       -0.2026
      5 C          63.4238   86.0843   15.5869 C.ar    1  UNL1        0.1798
      6 C          64.0755   86.6917   14.3800 C.ar    1  UNL1        0.1623
      7 F          64.5012   85.8177   13.2378 F       1  UNL1       -0.2026
      8 C          64.3015   88.1731   14.3155 C.ar    1  UNL1        0.0455
      9 S          63.1978   84.6029   15.6514 S.O2    1  UNL1        0.0791
     10 O          61.7223   84.8211   15.4925 O.2     1  UNL1       -0.1498
     11 O          64.6733   84.3847   15.8103 O.2     1  UNL1       -0.1498
     12 N          62.9717   83.1214   15.7160 N.pl3   1  UNL1       -0.1983
     13 H          62.8909   82.6733   16.5889 H       1  UNL1        0.1753
     14 C          62.8687   82.3226   14.4505 C.ar    1  UNL1        0.1542
     15 C          63.1456   82.8262   13.0650 C.ar    1  UNL1        0.0725
     16 S          62.9188   81.6948   12.1066 S.2     1  UNL1       -0.0625
     17 C          62.5016   80.4920   12.8998 C.ar    1  UNL1        0.1360
     18 N          62.4706   80.8799   14.3484 N.ar    1  UNL1       -0.2203
     19 N          64.1019   90.5287   15.3932 N.pl3   1  UNL1       -0.3289
     20 H          63.7534   91.1114   16.1062 H       1  UNL1        0.1471
     21 C          64.8589   91.1225   14.2424 C.3     1  UNL1        0.1163
     22 C          64.9548   91.8515   11.7505 C.ar    1  UNL1       -0.0063
     23 C          64.3175   91.9317   10.3951 C.ar    1  UNL1       -0.0030
     24 C          62.9469   91.3630   10.1760 C.ar    1  UNL1        0.0020
     25 C          62.2136   90.7141   11.3123 C.ar    1  UNL1        0.0293
     26 C          62.8510   90.6340   12.6678 C.ar    1  UNL1        0.1375
     27 F          62.1177   89.9851   13.8042 F       1  UNL1       -0.2045
     28 C          64.2216   91.2026   12.8869 C.ar    1  UNL1        0.0222
     29 C          66.3255   92.4202   11.9697 C.3     1  UNL1        0.0989
     30 C          66.4183   94.7943   10.9187 C.3     1  UNL1        0.0161
     31 C          67.3919   94.0835   10.0260 C.3     1  UNL1        0.0471
     32 C          67.6132   95.3523    9.2572 C.3     1  UNL1        0.0161
     33 C          68.3654   93.3726    9.1333 C.3     1  UNL1        0.0320
     34 C          68.1440   92.1038    9.9022 C.3     1  UNL1        0.0736
     35 N          67.1704   92.8147   10.7949 N.3     1  UNL1       -0.2714
@<TRIPOS>BOND
     1    30    31    1
     2    31    32    1
     3    31    33    1
     4    33    34    1
     5    34    35    1
     6    35    29    1
     7    29    22    1
     8    22    23   ar
     9    23    24   ar
    10    24    25   ar
    11    25    26   ar
    12    26    27    1
    13    26    28   ar
    14    28    21    1
    15    21    19    1
    16    19     1    1
    17     1     2   ar
    18     2     3   ar
    19     3     4    1
    20     3     5   ar
    21     5     9    1
    22     9    10    2
    23     9    11    2
    24     9    12    1
    25    12    14    1
    26    14    15   ar
    27    15    16   ar
    28    16    17   ar
    29    17    18   ar
    30     5     6   ar
    31     6     7    1
    32     6     8   ar
    33    35    31    1
    34    28    22   ar
    35     8     1   ar
    36    18    14   ar
    37    19    20    1
    38    12    13    1
