@<TRIPOS>MOLECULE
*****
 39 42 0 0 0
SMALL
GASTEIGER

@<TRIPOS>ATOM
      1 C          63.9913   90.1034   13.8396 C.2     1  UNL1        0.2522
      2 O          63.2715   90.8079   14.9511 O.2     1  UNL1       -0.2699
      3 N          64.8556   90.8828   12.8932 N.am    1  UNL1       -0.2981
      4 H          65.3281   90.4204   12.1637 H       1  UNL1        0.1498
      5 C          63.9026   83.2426   14.2529 C.ar    1  UNL1        0.1414
      6 C          64.5365   83.8010   15.4924 C.ar    1  UNL1        0.0371
      7 C          64.6810   85.2848   15.6576 C.ar    1  UNL1        0.0062
      8 C          64.1916   86.2103   14.5834 C.ar    1  UNL1        0.0352
      9 C          64.3361   87.6941   14.7486 C.ar    1  UNL1        0.0141
     10 C          63.8468   88.6196   13.6743 C.ar    1  UNL1        0.1293
     11 C          63.2128   88.0611   12.4348 C.ar    1  UNL1        0.3502
     12 O          62.7235   88.9866   11.3605 O.2     1  UNL1       -0.2443
     13 O          63.0683   86.5773   12.2696 O.2     1  UNL1       -0.4208
     14 C          63.5577   85.6518   13.3439 C.ar    1  UNL1        0.1517
     15 C          63.4132   84.1680   13.1787 C.ar    1  UNL1        0.0744
     16 O          63.7581   81.7587   14.0877 O.3     1  UNL1       -0.4791
     17 C          62.5210   81.1912   13.4573 C.3     1  UNL1        0.1659
     18 C          60.2239   80.1880   14.1407 C.3     1  UNL1        0.0038
     19 C          61.1963   81.3301   14.1472 C.3     1  UNL1        0.0435
     20 C          62.6085   80.4848   12.1369 C.3     1  UNL1        0.0435
     21 C          63.1338   81.2083   10.9326 C.3     1  UNL1        0.0038
     22 C          65.0001   92.3666   13.0584 C.3     1  UNL1        0.1229
     23 C          65.6029   93.1886   11.9580 C.3     1  UNL1        0.1495
     24 O          64.8572   92.3752   10.9420 O.3     1  UNL1       -0.3789
     25 H          64.3290   91.6986   11.3939 H       1  UNL1        0.2108
     26 C          66.2056   94.0107   10.8575 C.ar    1  UNL1        0.0328
     27 C          65.6950   95.3954   10.5899 C.ar    1  UNL1        0.0026
     28 C          66.2977   96.2174    9.4895 C.ar    1  UNL1        0.0295
     29 C          67.4111   95.6547    8.6567 C.ar    1  UNL1        0.1424
     30 F          68.0139   96.4767    7.5562 F       1  UNL1       -0.2041
     31 C          67.9218   94.2699    8.9243 C.ar    1  UNL1        0.0590
     32 C          67.3190   93.4479   10.0247 C.ar    1  UNL1        0.1406
     33 F          67.8297   92.0631   10.2923 F       1  UNL1       -0.2043
     34 C          66.3485   94.0021   12.9740 C.3     1  UNL1        0.1619
     35 N          67.2378   93.3226   13.9726 N.ar    1  UNL1       -0.2273
     36 C          67.1488   93.4521   15.4644 C.ar    1  UNL1        0.1973
     37 N          68.2283   92.6038   16.0686 N.ar    1  UNL1       -0.2007
     38 C          68.9845   91.9500   14.9503 C.ar    1  UNL1        0.2210
     39 N          68.3724   92.3941   13.6549 N.ar    1  UNL1       -0.1451
@<TRIPOS>BOND
     1    18    19    1
     2    19    17    1
     3    17    20    1
     4    20    21    1
     5    17    16    1
     6    16     5    1
     7     5     6   ar
     8     6     7   ar
     9     7     8   ar
    10     8     9   ar
    11     9    10   ar
    12    10     1    1
    13     1     2    2
    14     1     3   am
    15     3    22    1
    16    22    23    1
    17    23    24    1
    18    23    34    1
    19    34    35    1
    20    35    36   ar
    21    36    37   ar
    22    37    38   ar
    23    38    39   ar
    24    23    26    1
    25    26    27   ar
    26    27    28   ar
    27    28    29   ar
    28    29    30    1
    29    29    31   ar
    30    31    32   ar
    31    32    33    1
    32    10    11   ar
    33    11    12    2
    34    11    13   ar
    35    13    14   ar
    36    14    15   ar
    37    15     5   ar
    38    14     8   ar
    39    39    35   ar
    40    32    26   ar
    41     3     4    1
    42    24    25    1
@<TRIPOS>MOLECULE
*****
 39 42 0 0 0
SMALL
GASTEIGER

@<TRIPOS>ATOM
      1 C          63.6686   88.5373   15.1735 C.2     1  UNL1        0.2522
      2 O          63.0615   88.8505   16.5089 O.2     1  UNL1       -0.2699
      3 N          63.8717   87.1103   14.7580 N.am    1  UNL1       -0.2981
      4 H          64.2701   86.9047   13.8816 H       1  UNL1        0.1498
      5 C          66.2879   94.0119   11.9458 C.ar    1  UNL1        0.1414
      6 C          66.8865   93.9179   13.3179 C.ar    1  UNL1        0.0371
      7 C          66.4824   92.8042   14.2379 C.ar    1  UNL1        0.0062
      8 C          65.4796   91.7845   13.7857 C.ar    1  UNL1        0.0352
      9 C          65.0755   90.6708   14.7057 C.ar    1  UNL1        0.0141
     10 C          64.0727   89.6510   14.2535 C.ar    1  UNL1        0.1293
     11 C          63.4740   89.7450   12.8814 C.ar    1  UNL1        0.3502
     12 O          62.4712   88.7252   12.4292 O.2     1  UNL1       -0.2443
     13 O          63.8781   90.8587   11.9614 O.2     1  UNL1       -0.4208
     14 C          64.8809   91.8784   12.4136 C.ar    1  UNL1        0.1517
     15 C          65.2851   92.9922   11.4937 C.ar    1  UNL1        0.0744
     16 O          66.6920   95.1256   11.0259 O.3     1  UNL1       -0.4791
     17 C          67.2439   94.8128    9.6667 C.3     1  UNL1        0.1659
     18 C          68.8946   92.8127    9.5083 C.3     1  UNL1        0.0038
     19 C          67.5292   93.3913    9.2820 C.3     1  UNL1        0.0435
     20 C          67.5105   95.9214    8.6920 C.3     1  UNL1        0.0435
     21 C          66.3843   96.4997    7.8875 C.3     1  UNL1        0.0038
     22 C          63.4675   85.9966   15.6780 C.3     1  UNL1        0.1229
     23 C          63.2169   84.6236   15.1286 C.3     1  UNL1        0.1495
     24 O          62.4750   84.2582   16.3800 O.3     1  UNL1       -0.3789
     25 H          62.4679   85.0166   16.9847 H       1  UNL1        0.2108
     26 C          62.9662   83.2505   14.5790 C.ar    1  UNL1        0.0328
     27 C          61.5729   82.6957   14.5535 C.ar    1  UNL1        0.0026
     28 C          61.3223   81.3227   14.0040 C.ar    1  UNL1        0.0295
     29 C          62.4650   80.5044   13.4801 C.ar    1  UNL1        0.1424
     30 F          62.2144   79.1313   12.9306 F       1  UNL1       -0.2041
     31 C          63.8584   81.0592   13.5056 C.ar    1  UNL1        0.0590
     32 C          64.1090   82.4322   14.0551 C.ar    1  UNL1        0.1406
     33 F          65.5024   82.9871   14.0806 F       1  UNL1       -0.2043
     34 C          63.9588   84.9889   13.8771 C.3     1  UNL1        0.1619
     35 N          63.2309   85.0604   12.5675 N.ar    1  UNL1       -0.2273
     36 C          63.6330   84.3726   11.2966 C.ar    1  UNL1        0.1973
     37 N          62.6238   84.7195   10.2425 N.ar    1  UNL1       -0.2007
     38 C          61.5979   85.6216   10.8619 C.ar    1  UNL1        0.2210
     39 N          61.9731   85.8324   12.2989 N.ar    1  UNL1       -0.1451
@<TRIPOS>BOND
     1    18    19    1
     2    19    17    1
     3    17    20    1
     4    20    21    1
     5    17    16    1
     6    16     5    1
     7     5     6   ar
     8     6     7   ar
     9     7     8   ar
    10     8     9   ar
    11     9    10   ar
    12    10     1    1
    13     1     2    2
    14     1     3   am
    15     3    22    1
    16    22    23    1
    17    23    24    1
    18    23    34    1
    19    34    35    1
    20    35    36   ar
    21    36    37   ar
    22    37    38   ar
    23    38    39   ar
    24    23    26    1
    25    26    27   ar
    26    27    28   ar
    27    28    29   ar
    28    29    30    1
    29    29    31   ar
    30    31    32   ar
    31    32    33    1
    32    10    11   ar
    33    11    12    2
    34    11    13   ar
    35    13    14   ar
    36    14    15   ar
    37    15     5   ar
    38    14     8   ar
    39    39    35   ar
    40    32    26   ar
    41     3     4    1
    42    24    25    1
@<TRIPOS>MOLECULE
*****
 39 42 0 0 0
SMALL
GASTEIGER

@<TRIPOS>ATOM
      1 C          59.4878   89.5472    6.9610 C.2     1  UNL1        0.2522
      2 O          58.6479   88.3077    6.8710 O.2     1  UNL1       -0.2699
      3 N          60.2148   89.8700    8.2327 N.am    1  UNL1       -0.2981
      4 H          60.7661   90.6835    8.2918 H       1  UNL1        0.1498
      5 C          61.2769   93.4611    1.6008 C.ar    1  UNL1        0.1414
      6 C          62.5013   92.7908    2.1498 C.ar    1  UNL1        0.0371
      7 C          62.3884   91.8740    3.3316 C.ar    1  UNL1        0.0062
      8 C          61.0510   91.6274    3.9645 C.ar    1  UNL1        0.0352
      9 C          60.9381   90.7106    5.1463 C.ar    1  UNL1        0.0141
     10 C          59.6007   90.4640    5.7791 C.ar    1  UNL1        0.1293
     11 C          58.3762   91.1343    5.2302 C.ar    1  UNL1        0.3502
     12 O          57.0388   90.8877    5.8631 O.2     1  UNL1       -0.2443
     13 O          58.4891   92.0511    4.0484 O.2     1  UNL1       -0.4208
     14 C          59.8266   92.2977    3.4155 C.ar    1  UNL1        0.1517
     15 C          59.9395   93.2145    2.2337 C.ar    1  UNL1        0.0744
     16 O          61.3898   94.3779    0.4190 O.3     1  UNL1       -0.4791
     17 C          61.3309   93.8193   -0.9718 C.3     1  UNL1        0.1659
     18 C          59.0586   92.5959   -1.2719 C.3     1  UNL1        0.0038
     19 C          60.0105   93.6845   -1.6707 C.3     1  UNL1        0.0435
     20 C          62.5925   93.3956   -1.6639 C.3     1  UNL1        0.0435
     21 C          63.9225   93.8618   -1.1505 C.3     1  UNL1        0.0038
     22 C          60.1019   88.9531    9.4146 C.3     1  UNL1        0.1229
     23 C          60.9522   87.7198    9.4910 C.3     1  UNL1        0.1495
     24 O          59.7175   86.8682    9.4843 O.3     1  UNL1       -0.3789
     25 H          58.9329   87.4365    9.4363 H       1  UNL1        0.2108
     26 C          61.8026   86.4865    9.5674 C.ar    1  UNL1        0.0328
     27 C          62.5706   86.0292    8.3628 C.ar    1  UNL1        0.0026
     28 C          63.4209   84.7959    8.4392 C.ar    1  UNL1        0.0295
     29 C          63.5033   84.0199    9.7203 C.ar    1  UNL1        0.1424
     30 F          64.3537   82.7866    9.7967 F       1  UNL1       -0.2041
     31 C          62.7353   84.4772   10.9248 C.ar    1  UNL1        0.0590
     32 C          61.8850   85.7105   10.8484 C.ar    1  UNL1        0.1406
     33 F          61.1170   86.1679   12.0530 F       1  UNL1       -0.2043
     34 C          62.1869   88.5715    9.4976 C.3     1  UNL1        0.1619
     35 N          62.5506   89.3555   10.7236 N.ar    1  UNL1       -0.2273
     36 C          63.1259   90.7407   10.7459 C.ar    1  UNL1        0.1973
     37 N          63.3337   91.1333   12.1786 N.ar    1  UNL1       -0.2007
     38 C          62.8869   89.9908   13.0418 C.ar    1  UNL1        0.2210
     39 N          62.4029   88.8921   12.1426 N.ar    1  UNL1       -0.1451
@<TRIPOS>BOND
     1    18    19    1
     2    19    17    1
     3    17    20    1
     4    20    21    1
     5    17    16    1
     6    16     5    1
     7     5     6   ar
     8     6     7   ar
     9     7     8   ar
    10     8     9   ar
    11     9    10   ar
    12    10     1    1
    13     1     2    2
    14     1     3   am
    15     3    22    1
    16    22    23    1
    17    23    24    1
    18    23    34    1
    19    34    35    1
    20    35    36   ar
    21    36    37   ar
    22    37    38   ar
    23    38    39   ar
    24    23    26    1
    25    26    27   ar
    26    27    28   ar
    27    28    29   ar
    28    29    30    1
    29    29    31   ar
    30    31    32   ar
    31    32    33    1
    32    10    11   ar
    33    11    12    2
    34    11    13   ar
    35    13    14   ar
    36    14    15   ar
    37    15     5   ar
    38    14     8   ar
    39    39    35   ar
    40    32    26   ar
    41     3     4    1
    42    24    25    1
@<TRIPOS>MOLECULE
*****
 39 42 0 0 0
SMALL
GASTEIGER

@<TRIPOS>ATOM
      1 C          64.4289   90.0798   15.1730 C.2     1  UNL1        0.2522
      2 O          63.5240   91.1574   15.6926 O.2     1  UNL1       -0.2699
      3 N          65.7055   90.4444   14.4749 N.am    1  UNL1       -0.2981
      4 H          66.2995   89.7372   14.1339 H       1  UNL1        0.1498
      5 C          63.2503   83.3177   14.8064 C.ar    1  UNL1        0.1414
      6 C          63.9301   83.7666   13.5470 C.ar    1  UNL1        0.0371
      7 C          64.3017   85.2088   13.3684 C.ar    1  UNL1        0.0062
      8 C          63.9937   86.2021   14.4493 C.ar    1  UNL1        0.0352
      9 C          64.3653   87.6443   14.2707 C.ar    1  UNL1        0.0141
     10 C          64.0572   88.6376   15.3516 C.ar    1  UNL1        0.1293
     11 C          63.3774   88.1887   16.6112 C.ar    1  UNL1        0.3502
     12 O          63.0694   89.1820   17.6921 O.2     1  UNL1       -0.2443
     13 O          63.0058   86.7465   16.7898 O.2     1  UNL1       -0.4208
     14 C          63.3139   85.7532   15.7088 C.ar    1  UNL1        0.1517
     15 C          62.9422   84.3110   15.8873 C.ar    1  UNL1        0.0744
     16 O          62.8786   81.8755   14.9850 O.3     1  UNL1       -0.4791
     17 C          62.6036   81.0178   13.7856 C.3     1  UNL1        0.1659
     18 C          60.0697   80.5582   14.1299 C.3     1  UNL1        0.0038
     19 C          61.4459   80.0640   13.7951 C.3     1  UNL1        0.0435
     20 C          63.4863   81.1139   12.5765 C.3     1  UNL1        0.0435
     21 C          62.8788   81.1512   11.2055 C.3     1  UNL1        0.0038
     22 C          66.0772   91.8867   14.2963 C.3     1  UNL1        0.1229
     23 C          66.5112   92.3883   12.9510 C.3     1  UNL1        0.1495
     24 O          67.9332   92.0435   13.2811 O.3     1  UNL1       -0.3789
     25 H          67.9751   91.6633   14.1725 H       1  UNL1        0.2108
     26 C          66.9451   92.8900   11.6056 C.ar    1  UNL1        0.0328
     27 C          67.6444   91.9680   10.6511 C.ar    1  UNL1        0.0026
     28 C          68.0783   92.4697    9.3058 C.ar    1  UNL1        0.0295
     29 C          67.8130   93.8933    8.9149 C.ar    1  UNL1        0.1424
     30 F          68.2469   94.3950    7.5695 F       1  UNL1       -0.2041
     31 C          67.1137   94.8153    9.8693 C.ar    1  UNL1        0.0590
     32 C          66.6798   94.3136   11.2146 C.ar    1  UNL1        0.1406
     33 F          65.9805   95.2356   12.1692 F       1  UNL1       -0.2043
     34 C          65.0892   92.7331   12.6208 C.3     1  UNL1        0.1619
     35 N          64.2516   91.7779   11.8232 N.ar    1  UNL1       -0.2273
     36 C          63.9281   91.8962   10.3633 C.ar    1  UNL1        0.1973
     37 N          63.0670   90.7282    9.9833 N.ar    1  UNL1       -0.2007
     38 C          62.8585   89.8880   11.2083 C.ar    1  UNL1        0.2210
     39 N          63.5906   90.5368   12.3455 N.ar    1  UNL1       -0.1451
@<TRIPOS>BOND
     1    18    19    1
     2    19    17    1
     3    17    20    1
     4    20    21    1
     5    17    16    1
     6    16     5    1
     7     5     6   ar
     8     6     7   ar
     9     7     8   ar
    10     8     9   ar
    11     9    10   ar
    12    10     1    1
    13     1     2    2
    14     1     3   am
    15     3    22    1
    16    22    23    1
    17    23    24    1
    18    23    34    1
    19    34    35    1
    20    35    36   ar
    21    36    37   ar
    22    37    38   ar
    23    38    39   ar
    24    23    26    1
    25    26    27   ar
    26    27    28   ar
    27    28    29   ar
    28    29    30    1
    29    29    31   ar
    30    31    32   ar
    31    32    33    1
    32    10    11   ar
    33    11    12    2
    34    11    13   ar
    35    13    14   ar
    36    14    15   ar
    37    15     5   ar
    38    14     8   ar
    39    39    35   ar
    40    32    26   ar
    41     3     4    1
    42    24    25    1
@<TRIPOS>MOLECULE
*****
 39 42 0 0 0
SMALL
GASTEIGER

@<TRIPOS>ATOM
      1 C          58.9612   89.6755    6.3550 C.2     1  UNL1        0.2522
      2 O          57.5030   89.3959    6.5683 O.2     1  UNL1       -0.2699
      3 N          59.9908   88.9542    7.1735 N.am    1  UNL1       -0.2981
      4 H          60.9478   89.1377    7.0335 H       1  UNL1        0.1498
      5 C          62.0967   93.6991    1.7475 C.ar    1  UNL1        0.1414
      6 C          63.0887   92.7181    2.2984 C.ar    1  UNL1        0.0371
      7 C          62.6600   91.7172    3.3301 C.ar    1  UNL1        0.0062
      8 C          61.2393   91.6973    3.8109 C.ar    1  UNL1        0.0352
      9 C          60.8106   90.6964    4.8426 C.ar    1  UNL1        0.0141
     10 C          59.3899   90.6764    5.3233 C.ar    1  UNL1        0.1293
     11 C          58.3978   91.6575    4.7724 C.ar    1  UNL1        0.3502
     12 O          56.9771   91.6376    5.2532 O.2     1  UNL1       -0.2443
     13 O          58.8265   92.6584    3.7408 O.2     1  UNL1       -0.4208
     14 C          60.2473   92.6783    3.2600 C.ar    1  UNL1        0.1517
     15 C          60.6760   93.6792    2.2283 C.ar    1  UNL1        0.0744
     16 O          62.5254   94.7000    0.7158 O.3     1  UNL1       -0.4791
     17 C          63.0874   94.2331   -0.5941 C.3     1  UNL1        0.1659
     18 C          65.2972   95.5071   -0.1003 C.3     1  UNL1        0.0038
     19 C          64.4765   94.6294   -0.9982 C.3     1  UNL1        0.0435
     20 C          62.2603   93.3697   -1.5001 C.3     1  UNL1        0.0435
     21 C          60.7882   93.6220   -1.6383 C.3     1  UNL1        0.0038
     22 C          59.5621   87.9533    8.2051 C.3     1  UNL1        0.1229
     23 C          60.5570   86.9804    8.7652 C.3     1  UNL1        0.1495
     24 O          59.9001   85.8690    8.0015 O.3     1  UNL1       -0.3789
     25 H          59.1519   86.2226    7.4955 H       1  UNL1        0.2108
     26 C          61.5520   86.0076    9.3253 C.ar    1  UNL1        0.0328
     27 C          61.5975   85.7479   10.8019 C.ar    1  UNL1        0.0026
     28 C          62.5925   84.7751   11.3620 C.ar    1  UNL1        0.0295
     29 C          63.5419   84.0620   10.4454 C.ar    1  UNL1        0.1424
     30 F          64.5369   83.0892   11.0055 F       1  UNL1       -0.2041
     31 C          63.4963   84.3217    8.9688 C.ar    1  UNL1        0.0590
     32 C          62.5013   85.2945    8.4087 C.ar    1  UNL1        0.1406
     33 F          62.4557   85.5542    6.9320 F       1  UNL1       -0.2043
     34 C          61.2138   88.0919    9.5289 C.3     1  UNL1        0.1619
     35 N          60.4163   88.9044   10.5055 N.ar    1  UNL1       -0.2273
     36 C          60.1122   90.3689   10.3929 C.ar    1  UNL1        0.1973
     37 N          59.2908   90.7647   11.5839 N.ar    1  UNL1       -0.2007
     38 C          59.0873   89.5448   12.4327 C.ar    1  UNL1        0.2210
     39 N          59.7829   88.3950   11.7662 N.ar    1  UNL1       -0.1451
@<TRIPOS>BOND
     1    18    19    1
     2    19    17    1
     3    17    20    1
     4    20    21    1
     5    17    16    1
     6    16     5    1
     7     5     6   ar
     8     6     7   ar
     9     7     8   ar
    10     8     9   ar
    11     9    10   ar
    12    10     1    1
    13     1     2    2
    14     1     3   am
    15     3    22    1
    16    22    23    1
    17    23    24    1
    18    23    34    1
    19    34    35    1
    20    35    36   ar
    21    36    37   ar
    22    37    38   ar
    23    38    39   ar
    24    23    26    1
    25    26    27   ar
    26    27    28   ar
    27    28    29   ar
    28    29    30    1
    29    29    31   ar
    30    31    32   ar
    31    32    33    1
    32    10    11   ar
    33    11    12    2
    34    11    13   ar
    35    13    14   ar
    36    14    15   ar
    37    15     5   ar
    38    14     8   ar
    39    39    35   ar
    40    32    26   ar
    41     3     4    1
    42    24    25    1
@<TRIPOS>MOLECULE
*****
 39 42 0 0 0
SMALL
GASTEIGER

@<TRIPOS>ATOM
      1 C          64.0773   88.0341   14.5495 C.2     1  UNL1        0.2522
      2 O          63.6594   88.1283   15.9870 O.2     1  UNL1       -0.2699
      3 N          64.2861   86.6907   13.9156 N.am    1  UNL1       -0.2981
      4 H          64.5604   86.6288   12.9721 H       1  UNL1        0.1498
      5 C          65.8693   94.0814   11.8166 C.ar    1  UNL1        0.1414
      6 C          66.6159   93.8831   13.1024 C.ar    1  UNL1        0.0371
      7 C          66.4068   92.6340   13.9061 C.ar    1  UNL1        0.0062
      8 C          65.4512   91.5832   13.4241 C.ar    1  UNL1        0.0352
      9 C          65.2421   90.3340   14.2278 C.ar    1  UNL1        0.0141
     10 C          64.2864   89.2832   13.7457 C.ar    1  UNL1        0.1293
     11 C          63.5398   89.4815   12.4599 C.ar    1  UNL1        0.3502
     12 O          62.5841   88.4306   11.9779 O.2     1  UNL1       -0.2443
     13 O          63.7488   90.7306   11.6562 O.2     1  UNL1       -0.4208
     14 C          64.7046   91.7815   12.1383 C.ar    1  UNL1        0.1517
     15 C          64.9137   93.0306   11.3346 C.ar    1  UNL1        0.0744
     16 O          66.0784   95.3305   11.0129 O.3     1  UNL1       -0.4791
     17 C          66.8929   95.2849    9.7542 C.3     1  UNL1        0.1659
     18 C          68.4472   93.2201    9.4874 C.3     1  UNL1        0.0038
     19 C          67.2026   93.9669    9.1085 C.3     1  UNL1        0.0435
     20 C          67.3979   96.5574    9.1410 C.3     1  UNL1        0.0435
     21 C          67.1209   96.8559    7.6974 C.3     1  UNL1        0.0038
     22 C          64.0770   85.4415   14.7193 C.3     1  UNL1        0.1229
     23 C          63.7661   84.1476   14.0272 C.3     1  UNL1        0.1495
     24 O          65.0462   84.2542   13.2527 O.3     1  UNL1       -0.3789
     25 H          65.5117   85.0661   13.5078 H       1  UNL1        0.2108
     26 C          63.4550   82.8537   13.3351 C.ar    1  UNL1        0.0328
     27 C          63.1639   81.6229   14.1415 C.ar    1  UNL1        0.0026
     28 C          62.8529   80.3290   13.4494 C.ar    1  UNL1        0.0295
     29 C          62.8330   80.2659   11.9508 C.ar    1  UNL1        0.1424
     30 F          62.5219   78.9719   11.2587 F       1  UNL1       -0.2041
     31 C          63.1241   81.4967   11.1444 C.ar    1  UNL1        0.0590
     32 C          63.4351   82.7906   11.8366 C.ar    1  UNL1        0.1406
     33 F          63.7263   84.0215   11.0301 F       1  UNL1       -0.2043
     34 C          62.4859   84.0410   14.8017 C.3     1  UNL1        0.1619
     35 N          62.2226   84.9729   15.9472 N.ar    1  UNL1       -0.2273
     36 C          61.0305   85.8710   16.0971 C.ar    1  UNL1        0.1973
     37 N          61.1762   86.6235   17.3865 N.ar    1  UNL1       -0.2007
     38 C          62.4583   86.1905   18.0335 C.ar    1  UNL1        0.2210
     39 N          63.1051   85.1704   17.1440 N.ar    1  UNL1       -0.1451
@<TRIPOS>BOND
     1    18    19    1
     2    19    17    1
     3    17    20    1
     4    20    21    1
     5    17    16    1
     6    16     5    1
     7     5     6   ar
     8     6     7   ar
     9     7     8   ar
    10     8     9   ar
    11     9    10   ar
    12    10     1    1
    13     1     2    2
    14     1     3   am
    15     3    22    1
    16    22    23    1
    17    23    24    1
    18    23    34    1
    19    34    35    1
    20    35    36   ar
    21    36    37   ar
    22    37    38   ar
    23    38    39   ar
    24    23    26    1
    25    26    27   ar
    26    27    28   ar
    27    28    29   ar
    28    29    30    1
    29    29    31   ar
    30    31    32   ar
    31    32    33    1
    32    10    11   ar
    33    11    12    2
    34    11    13   ar
    35    13    14   ar
    36    14    15   ar
    37    15     5   ar
    38    14     8   ar
    39    39    35   ar
    40    32    26   ar
    41     3     4    1
    42    24    25    1
@<TRIPOS>MOLECULE
*****
 39 42 0 0 0
SMALL
GASTEIGER

@<TRIPOS>ATOM
      1 C          64.0854   90.3406   14.8735 C.2     1  UNL1        0.2522
      2 O          63.8419   91.3248   15.9789 O.2     1  UNL1       -0.2699
      3 N          64.5623   90.8195   13.5344 N.am    1  UNL1       -0.2981
      4 H          64.7221   90.1735   12.8088 H       1  UNL1        0.1498
      5 C          63.3926   83.5039   14.7020 C.ar    1  UNL1        0.1414
      6 C          63.8672   83.9831   13.3622 C.ar    1  UNL1        0.0371
      7 C          64.1007   85.4463   13.1286 C.ar    1  UNL1        0.0062
      8 C          63.8596   86.4302   14.2347 C.ar    1  UNL1        0.0352
      9 C          64.0930   87.8934   14.0010 C.ar    1  UNL1        0.0141
     10 C          63.8519   88.8774   15.1072 C.ar    1  UNL1        0.1293
     11 C          63.3772   88.3982   16.4470 C.ar    1  UNL1        0.3502
     12 O          63.1360   89.3822   17.5531 O.2     1  UNL1       -0.2443
     13 O          63.1437   86.9351   16.6807 O.2     1  UNL1       -0.4208
     14 C          63.3849   85.9511   15.5744 C.ar    1  UNL1        0.1517
     15 C          63.1514   84.4879   15.8081 C.ar    1  UNL1        0.0744
     16 O          63.1591   82.0407   14.9356 O.3     1  UNL1       -0.4791
     17 C          62.3118   81.2544   13.9798 C.3     1  UNL1        0.1659
     18 C          60.0888   79.9210   14.1550 C.3     1  UNL1        0.0038
     19 C          60.8210   81.2302   14.1443 C.3     1  UNL1        0.0435
     20 C          62.9552   80.4923   12.8593 C.3     1  UNL1        0.0435
     21 C          62.7383   80.9217   11.4386 C.3     1  UNL1        0.0038
     22 C          64.7958   92.2827   13.3007 C.3     1  UNL1        0.1229
     23 C          65.5682   92.7362   12.0975 C.3     1  UNL1        0.1495
     24 O          64.7983   91.7751   11.2411 O.3     1  UNL1       -0.3789
     25 H          64.1615   91.2914   11.7900 H       1  UNL1        0.2108
     26 C          66.3407   93.1897   10.8943 C.ar    1  UNL1        0.0328
     27 C          67.4393   92.3313   10.3410 C.ar    1  UNL1        0.0026
     28 C          68.2117   92.7849    9.1378 C.ar    1  UNL1        0.0295
     29 C          67.8854   94.0968    8.4880 C.ar    1  UNL1        0.1424
     30 F          68.6579   94.5504    7.2847 F       1  UNL1       -0.2041
     31 C          66.7868   94.9553    9.0413 C.ar    1  UNL1        0.0590
     32 C          66.0145   94.5017   10.2444 C.ar    1  UNL1        0.1406
     33 F          64.9158   95.3601   10.7978 F       1  UNL1       -0.2043
     34 C          66.3381   93.6973   12.9540 C.3     1  UNL1        0.1619
     35 N          67.1764   93.1858   14.0879 N.ar    1  UNL1       -0.2273
     36 C          66.9028   93.3897   15.5485 C.ar    1  UNL1        0.1973
     37 N          67.9928   92.7106   16.3236 N.ar    1  UNL1       -0.2007
     38 C          68.9401   92.0870   15.3419 C.ar    1  UNL1        0.2210
     39 N          68.4356   92.3807   13.9601 N.ar    1  UNL1       -0.1451
@<TRIPOS>BOND
     1    18    19    1
     2    19    17    1
     3    17    20    1
     4    20    21    1
     5    17    16    1
     6    16     5    1
     7     5     6   ar
     8     6     7   ar
     9     7     8   ar
    10     8     9   ar
    11     9    10   ar
    12    10     1    1
    13     1     2    2
    14     1     3   am
    15     3    22    1
    16    22    23    1
    17    23    24    1
    18    23    34    1
    19    34    35    1
    20    35    36   ar
    21    36    37   ar
    22    37    38   ar
    23    38    39   ar
    24    23    26    1
    25    26    27   ar
    26    27    28   ar
    27    28    29   ar
    28    29    30    1
    29    29    31   ar
    30    31    32   ar
    31    32    33    1
    32    10    11   ar
    33    11    12    2
    34    11    13   ar
    35    13    14   ar
    36    14    15   ar
    37    15     5   ar
    38    14     8   ar
    39    39    35   ar
    40    32    26   ar
    41     3     4    1
    42    24    25    1
