@<TRIPOS>MOLECULE
*****
 27 30 0 0 0
SMALL
GASTEIGER

@<TRIPOS>ATOM
      1 C          63.5187   82.2706   12.2773 C.2     1  UNL1        0.0919
      2 C          63.9000   81.7810   13.6429 C.2     1  UNL1        0.0183
      3 C          64.1229   82.7615   14.7560 C.2     1  UNL1        0.0511
      4 C          63.9645   84.2315   14.5035 C.2     1  UNL1        0.2322
      5 N          64.1178   85.4258   15.3980 N.2     1  UNL1       -0.0308
      6 C          63.8313   86.6536   14.5853 C.2     1  UNL1        0.3749
      7 N          63.5009   86.2181   13.1884 N.2     1  UNL1       -0.0347
      8 C          63.5833   84.7212   13.1379 C.2     1  UNL1        0.2191
      9 C          63.3604   83.7407   12.0248 C.3     1  UNL1        0.1226
     10 C          63.8686   88.0684   15.0822 C.ar    1  UNL1        0.0845
     11 C          64.4716   89.1465   14.2313 C.ar    1  UNL1        0.0074
     12 C          64.5089   90.5613   14.7282 C.ar    1  UNL1        0.0002
     13 C          63.9432   90.8980   16.0759 C.ar    1  UNL1       -0.0003
     14 C          63.3401   89.8199   16.9268 C.ar    1  UNL1       -0.0040
     15 C          63.3028   88.4052   16.4300 C.ar    1  UNL1       -0.0144
     16 C          62.6997   87.3271   17.2809 C.3     1  UNL1        0.0313
     17 C          65.1120   91.6394   13.8773 C.ar    1  UNL1        0.0000
     18 C          64.7941   91.7050   12.4129 C.ar    1  UNL1        0.0000
     19 C          65.3972   92.7831   11.5620 C.ar    1  UNL1        0.0000
     20 C          66.3182   93.7956   12.1755 C.ar    1  UNL1        0.0000
     21 C          66.6361   93.7300   13.6399 C.ar    1  UNL1        0.0000
     22 C          66.0330   92.6519   14.4908 C.ar    1  UNL1        0.0000
     23 S          63.2958   81.2902   11.1642 S.O2    1  UNL1        0.0054
     24 O          62.7281   80.3067   12.1442 O.2     1  UNL1       -0.1689
     25 O          63.8636   82.2737   10.1842 O.2     1  UNL1       -0.1689
     26 C          62.7377   78.8819   10.3652 C.3     1  UNL1        0.0276
     27 C          63.0729   80.3097   10.0511 C.3     1  UNL1        0.1556
@<TRIPOS>BOND
     1    26    27    1
     2    27    23    1
     3    23    24    2
     4    23    25    2
     5    23     1    1
     6     1     2    2
     7     2     3    1
     8     3     4    2
     9     4     5    1
    10     5     6    2
    11     6    10    1
    12    10    11   ar
    13    11    12   ar
    14    12    17    1
    15    17    18   ar
    16    18    19   ar
    17    19    20   ar
    18    20    21   ar
    19    21    22   ar
    20    12    13   ar
    21    13    14   ar
    22    14    15   ar
    23    15    16    1
    24     6     7    1
    25     7     8    2
    26     8     9    1
    27     9     1    1
    28     8     4    1
    29    15    10   ar
    30    22    17   ar
@<TRIPOS>MOLECULE
*****
 27 30 0 0 0
SMALL
GASTEIGER

@<TRIPOS>ATOM
      1 C          66.3534   92.3889   13.9640 C.2     1  UNL1        0.0919
      2 C          66.3260   93.2525   12.7380 C.2     1  UNL1        0.0183
      3 C          65.3916   92.9256   11.6110 C.2     1  UNL1        0.0511
      4 C          64.4846   91.7350   11.7101 C.2     1  UNL1        0.2322
      5 N          63.4651   91.1686   10.7669 N.2     1  UNL1       -0.0308
      6 C          62.8624   89.9549   11.4100 C.2     1  UNL1        0.3749
      7 N          63.5094   89.7711   12.7507 N.2     1  UNL1       -0.0347
      8 C          64.5121   90.8713   12.9362 C.2     1  UNL1        0.2191
      9 C          65.4465   91.1983   14.0631 C.3     1  UNL1        0.1226
     10 C          61.7992   89.0787   10.8165 C.ar    1  UNL1        0.0845
     11 C          62.1653   88.0408    9.7974 C.ar    1  UNL1        0.0074
     12 C          61.1023   87.1646    9.2039 C.ar    1  UNL1        0.0002
     13 C          59.6731   87.3264    9.6296 C.ar    1  UNL1       -0.0003
     14 C          59.3070   88.3643   10.6488 C.ar    1  UNL1       -0.0040
     15 C          60.3701   89.2405   11.2422 C.ar    1  UNL1       -0.0144
     16 C          60.0039   90.2784   12.2614 C.3     1  UNL1        0.0313
     17 C          61.4684   86.1267    8.1847 C.ar    1  UNL1        0.0000
     18 C          60.4558   85.6795    7.1726 C.ar    1  UNL1        0.0000
     19 C          60.8219   84.6416    6.1534 C.ar    1  UNL1        0.0000
     20 C          62.2006   84.0509    6.1464 C.ar    1  UNL1        0.0000
     21 C          63.2133   84.4981    7.1586 C.ar    1  UNL1        0.0000
     22 C          62.8471   85.5361    8.1777 C.ar    1  UNL1        0.0000
     23 S          67.2878   92.7158   15.0910 S.O2    1  UNL1        0.0054
     24 O          66.1336   92.7123   16.0490 O.2     1  UNL1       -0.1689
     25 O          68.4420   92.7193   14.1330 O.2     1  UNL1       -0.1689
     26 C          69.1796   94.1902   16.0895 C.3     1  UNL1        0.0276
     27 C          68.2222   93.0427   16.2179 C.3     1  UNL1        0.1556
@<TRIPOS>BOND
     1    26    27    1
     2    27    23    1
     3    23    24    2
     4    23    25    2
     5    23     1    1
     6     1     2    2
     7     2     3    1
     8     3     4    2
     9     4     5    1
    10     5     6    2
    11     6    10    1
    12    10    11   ar
    13    11    12   ar
    14    12    17    1
    15    17    18   ar
    16    18    19   ar
    17    19    20   ar
    18    20    21   ar
    19    21    22   ar
    20    12    13   ar
    21    13    14   ar
    22    14    15   ar
    23    15    16    1
    24     6     7    1
    25     7     8    2
    26     8     9    1
    27     9     1    1
    28     8     4    1
    29    15    10   ar
    30    22    17   ar
@<TRIPOS>MOLECULE
*****
 27 30 0 0 0
SMALL
GASTEIGER

@<TRIPOS>ATOM
      1 C          65.3518   92.9838   11.5026 C.2     1  UNL1        0.0919
      2 C          64.3393   92.4964   10.5090 C.2     1  UNL1        0.0183
      3 C          63.5856   91.2256   10.7683 C.2     1  UNL1        0.0511
      4 C          63.8444   90.4423   12.0210 C.2     1  UNL1        0.2322
      5 N          63.2599   89.1639   12.5443 N.2     1  UNL1       -0.0308
      6 C          63.9111   88.8612   13.8612 C.2     1  UNL1        0.3749
      7 N          64.8982   89.9526   14.1519 N.2     1  UNL1       -0.0347
      8 C          64.8570   90.9298   13.0145 C.2     1  UNL1        0.2191
      9 C          65.6106   92.2006   12.7553 C.3     1  UNL1        0.1226
     10 C          63.6254   87.6753   14.7342 C.ar    1  UNL1        0.0845
     11 C          63.6257   86.2947   14.1475 C.ar    1  UNL1        0.0074
     12 C          63.3400   85.1088   15.0204 C.ar    1  UNL1        0.0002
     13 C          63.0540   85.3034   16.4799 C.ar    1  UNL1       -0.0003
     14 C          63.0537   86.6840   17.0666 C.ar    1  UNL1       -0.0040
     15 C          63.3394   87.8699   16.1937 C.ar    1  UNL1       -0.0144
     16 C          63.3391   89.2504   16.7803 C.3     1  UNL1        0.0313
     17 C          63.3403   83.7283   14.4337 C.ar    1  UNL1        0.0000
     18 C          64.4050   83.3294   13.4553 C.ar    1  UNL1        0.0000
     19 C          64.4053   81.9489   12.8687 C.ar    1  UNL1        0.0000
     20 C          63.3409   80.9673   13.2604 C.ar    1  UNL1        0.0000
     21 C          62.2763   81.3662   14.2389 C.ar    1  UNL1        0.0000
     22 C          62.2760   82.7467   14.8255 C.ar    1  UNL1        0.0000
     23 S          66.1055   94.2546   11.2433 S.O2    1  UNL1        0.0054
     24 O          66.1023   93.9566    9.7732 O.2     1  UNL1       -0.1689
     25 O          66.1086   94.5526   12.7134 O.2     1  UNL1       -0.1689
     26 C          66.1962   96.8509   11.2149 C.3     1  UNL1        0.0276
     27 C          66.8591   95.5253   10.9841 C.3     1  UNL1        0.1556
@<TRIPOS>BOND
     1    26    27    1
     2    27    23    1
     3    23    24    2
     4    23    25    2
     5    23     1    1
     6     1     2    2
     7     2     3    1
     8     3     4    2
     9     4     5    1
    10     5     6    2
    11     6    10    1
    12    10    11   ar
    13    11    12   ar
    14    12    17    1
    15    17    18   ar
    16    18    19   ar
    17    19    20   ar
    18    20    21   ar
    19    21    22   ar
    20    12    13   ar
    21    13    14   ar
    22    14    15   ar
    23    15    16    1
    24     6     7    1
    25     7     8    2
    26     8     9    1
    27     9     1    1
    28     8     4    1
    29    15    10   ar
    30    22    17   ar
@<TRIPOS>MOLECULE
*****
 27 30 0 0 0
SMALL
GASTEIGER

@<TRIPOS>ATOM
      1 C          62.9677   81.9001   12.5031 C.2     1  UNL1        0.0919
      2 C          63.1720   82.0025   13.9855 C.2     1  UNL1        0.0183
      3 C          63.3478   83.3469   14.6273 C.2     1  UNL1        0.0511
      4 C          63.3193   84.5888   13.7867 C.2     1  UNL1        0.2322
      5 N          63.4633   86.0405   14.1355 N.2     1  UNL1       -0.0308
      6 C          63.3480   86.8354   12.8687 C.2     1  UNL1        0.3749
      7 N          63.1328   85.8749   11.7368 N.2     1  UNL1       -0.0347
      8 C          63.1150   84.4864   12.3042 C.2     1  UNL1        0.2191
      9 C          62.9393   83.1421   11.6624 C.3     1  UNL1        0.1226
     10 C          63.4330   88.3286   12.7539 C.ar    1  UNL1        0.0845
     11 C          64.3871   89.0944   13.6218 C.ar    1  UNL1        0.0074
     12 C          64.4722   90.5875   13.5070 C.ar    1  UNL1        0.0002
     13 C          63.6032   91.3149   12.5244 C.ar    1  UNL1       -0.0003
     14 C          62.6491   90.5491   11.6564 C.ar    1  UNL1       -0.0040
     15 C          62.5640   89.0560   11.7712 C.ar    1  UNL1       -0.0144
     16 C          61.6100   88.2902   10.9033 C.3     1  UNL1        0.0313
     17 C          65.4263   91.3533   14.3750 C.ar    1  UNL1        0.0000
     18 C          64.9827   91.8530   15.7179 C.ar    1  UNL1        0.0000
     19 C          65.9368   92.6188   16.5858 C.ar    1  UNL1        0.0000
     20 C          67.3344   92.8849   16.1108 C.ar    1  UNL1        0.0000
     21 C          67.7780   92.3852   14.7679 C.ar    1  UNL1        0.0000
     22 C          66.8239   91.6194   13.9000 C.ar    1  UNL1        0.0000
     23 S          62.7920   80.5558   11.8613 S.O2    1  UNL1        0.0054
     24 O          63.2019   81.1335   10.5390 O.2     1  UNL1       -0.1689
     25 O          62.3820   79.9782   13.1835 O.2     1  UNL1       -0.1689
     26 C          62.8385   79.0496    9.7449 C.3     1  UNL1        0.0276
     27 C          62.6162   79.2115   11.2195 C.3     1  UNL1        0.1556
@<TRIPOS>BOND
     1    26    27    1
     2    27    23    1
     3    23    24    2
     4    23    25    2
     5    23     1    1
     6     1     2    2
     7     2     3    1
     8     3     4    2
     9     4     5    1
    10     5     6    2
    11     6    10    1
    12    10    11   ar
    13    11    12   ar
    14    12    17    1
    15    17    18   ar
    16    18    19   ar
    17    19    20   ar
    18    20    21   ar
    19    21    22   ar
    20    12    13   ar
    21    13    14   ar
    22    14    15   ar
    23    15    16    1
    24     6     7    1
    25     7     8    2
    26     8     9    1
    27     9     1    1
    28     8     4    1
    29    15    10   ar
    30    22    17   ar
@<TRIPOS>MOLECULE
*****
 27 30 0 0 0
SMALL
GASTEIGER

@<TRIPOS>ATOM
      1 C          62.9525   82.6677   13.7224 C.2     1  UNL1        0.0919
      2 C          63.0489   82.9099   15.1996 C.2     1  UNL1        0.0183
      3 C          63.3048   84.2942   15.7175 C.2     1  UNL1        0.0511
      4 C          63.4643   85.4363   14.7583 C.2     1  UNL1        0.2322
      5 N          63.7222   86.8984   14.9724 N.2     1  UNL1       -0.0308
      6 C          63.7851   87.5598   13.6275 C.2     1  UNL1        0.3749
      7 N          63.5661   86.5065   12.5823 N.2     1  UNL1       -0.0347
      8 C          63.3678   85.1941   13.2811 C.2     1  UNL1        0.2191
      9 C          63.1119   83.8098   12.7632 C.3     1  UNL1        0.1226
     10 C          64.0249   89.0185   13.3728 C.ar    1  UNL1        0.0845
     11 C          65.1770   89.7157   14.0335 C.ar    1  UNL1        0.0074
     12 C          65.4169   91.1743   13.7787 C.ar    1  UNL1        0.0002
     13 C          64.5046   91.9357   12.8633 C.ar    1  UNL1       -0.0003
     14 C          63.3525   91.2384   12.2026 C.ar    1  UNL1       -0.0040
     15 C          63.1126   89.7798   12.4574 C.ar    1  UNL1       -0.0144
     16 C          61.9605   89.0826   11.7967 C.3     1  UNL1        0.0313
     17 C          66.5690   91.8715   14.4394 C.ar    1  UNL1        0.0000
     18 C          66.3573   92.6190   15.7225 C.ar    1  UNL1        0.0000
     19 C          67.5094   93.3162   16.3832 C.ar    1  UNL1        0.0000
     20 C          68.8733   93.2659   15.7608 C.ar    1  UNL1        0.0000
     21 C          69.0849   92.5184   14.4777 C.ar    1  UNL1        0.0000
     22 C          67.9328   91.8212   13.8170 C.ar    1  UNL1        0.0000
     23 S          62.6965   81.2834   13.2045 S.O2    1  UNL1        0.0054
     24 O          63.1601   81.7074   11.8424 O.2     1  UNL1       -0.1689
     25 O          62.2330   80.8595   14.5666 O.2     1  UNL1       -0.1689
     26 C          62.6160   79.6000   11.2272 C.3     1  UNL1        0.0276
     27 C          62.4406   79.8991   12.6866 C.3     1  UNL1        0.1556
@<TRIPOS>BOND
     1    26    27    1
     2    27    23    1
     3    23    24    2
     4    23    25    2
     5    23     1    1
     6     1     2    2
     7     2     3    1
     8     3     4    2
     9     4     5    1
    10     5     6    2
    11     6    10    1
    12    10    11   ar
    13    11    12   ar
    14    12    17    1
    15    17    18   ar
    16    18    19   ar
    17    19    20   ar
    18    20    21   ar
    19    21    22   ar
    20    12    13   ar
    21    13    14   ar
    22    14    15   ar
    23    15    16    1
    24     6     7    1
    25     7     8    2
    26     8     9    1
    27     9     1    1
    28     8     4    1
    29    15    10   ar
    30    22    17   ar
@<TRIPOS>MOLECULE
*****
 27 30 0 0 0
SMALL
GASTEIGER

@<TRIPOS>ATOM
      1 C          65.4142   91.5569   13.8435 C.2     1  UNL1        0.0919
      2 C          64.5058   91.5792   12.6501 C.2     1  UNL1        0.0183
      3 C          63.7237   90.3539   12.2798 C.2     1  UNL1        0.0511
      4 C          63.8502   89.1063   13.1029 C.2     1  UNL1        0.2322
      5 N          63.2095   87.7554   12.9828 N.2     1  UNL1       -0.0308
      6 C          63.7220   86.8981   14.1019 C.2     1  UNL1        0.3749
      7 N          64.6795   87.7192   14.9137 N.2     1  UNL1       -0.0347
      8 C          64.7587   89.0840   14.2962 C.2     1  UNL1        0.2191
      9 C          65.5407   90.3093   14.6665 C.3     1  UNL1        0.1226
     10 C          63.3435   85.4703   14.3633 C.ar    1  UNL1        0.0845
     11 C          63.3713   84.4704   13.2456 C.ar    1  UNL1        0.0074
     12 C          62.9928   83.0427   13.5069 C.ar    1  UNL1        0.0002
     13 C          62.5865   82.6149   14.8860 C.ar    1  UNL1       -0.0003
     14 C          62.5587   83.6149   16.0037 C.ar    1  UNL1       -0.0040
     15 C          62.9372   85.0426   15.7424 C.ar    1  UNL1       -0.0144
     16 C          62.9094   86.0425   16.8601 C.3     1  UNL1        0.0313
     17 C          63.0206   82.0427   12.3892 C.ar    1  UNL1        0.0000
     18 C          63.4320   82.4693   11.0113 C.ar    1  UNL1        0.0000
     19 C          63.4598   81.4694    9.8935 C.ar    1  UNL1        0.0000
     20 C          63.0762   80.0429   10.1537 C.ar    1  UNL1        0.0000
     21 C          62.6648   79.6162   11.5316 C.ar    1  UNL1        0.0000
     22 C          62.6370   80.6162   12.6493 C.ar    1  UNL1        0.0000
     23 S          66.1962   92.7822   14.2138 S.O2    1  UNL1        0.0054
     24 O          65.9345   93.3600   12.8545 O.2     1  UNL1       -0.1689
     25 O          66.4580   92.2044   15.5730 O.2     1  UNL1       -0.1689
     26 C          68.1320   93.9014   15.5367 C.3     1  UNL1        0.0276
     27 C          66.9783   94.0075   14.5841 C.3     1  UNL1        0.1556
@<TRIPOS>BOND
     1    26    27    1
     2    27    23    1
     3    23    24    2
     4    23    25    2
     5    23     1    1
     6     1     2    2
     7     2     3    1
     8     3     4    2
     9     4     5    1
    10     5     6    2
    11     6    10    1
    12    10    11   ar
    13    11    12   ar
    14    12    17    1
    15    17    18   ar
    16    18    19   ar
    17    19    20   ar
    18    20    21   ar
    19    21    22   ar
    20    12    13   ar
    21    13    14   ar
    22    14    15   ar
    23    15    16    1
    24     6     7    1
    25     7     8    2
    26     8     9    1
    27     9     1    1
    28     8     4    1
    29    15    10   ar
    30    22    17   ar
@<TRIPOS>MOLECULE
*****
 27 30 0 0 0
SMALL
GASTEIGER

@<TRIPOS>ATOM
      1 C          62.9521   82.1710   13.0599 C.2     1  UNL1        0.0919
      2 C          63.6195   82.6937   14.2973 C.2     1  UNL1        0.0183
      3 C          63.8174   84.1698   14.4762 C.2     1  UNL1        0.0511
      4 C          63.3480   85.1232   13.4177 C.2     1  UNL1        0.2322
      5 N          63.4051   86.6187   13.3170 N.2     1  UNL1       -0.0308
      6 C          62.7730   87.0203   12.0173 C.2     1  UNL1        0.3749
      7 N          62.3252   85.7730   11.3147 N.2     1  UNL1       -0.0347
      8 C          62.6806   84.6005   12.1802 C.2     1  UNL1        0.2191
      9 C          62.4826   83.1244   12.0013 C.3     1  UNL1        0.1226
     10 C          62.6162   88.4230   11.5094 C.ar    1  UNL1        0.0845
     11 C          63.6431   89.4626   11.8484 C.ar    1  UNL1        0.0074
     12 C          63.4864   90.8652   11.3406 C.ar    1  UNL1        0.0002
     13 C          62.3028   91.2284   10.4938 C.ar    1  UNL1       -0.0003
     14 C          61.2760   90.1889   10.1548 C.ar    1  UNL1       -0.0040
     15 C          61.4327   88.7862   10.6626 C.ar    1  UNL1       -0.0144
     16 C          60.4058   87.7467   10.3236 C.3     1  UNL1        0.0313
     17 C          64.5133   91.9047   11.6796 C.ar    1  UNL1        0.0000
     18 C          64.9479   92.8963   10.6414 C.ar    1  UNL1        0.0000
     19 C          65.9748   93.9358   10.9804 C.ar    1  UNL1        0.0000
     20 C          66.5671   93.9837   12.3577 C.ar    1  UNL1        0.0000
     21 C          66.1325   92.9922   13.3959 C.ar    1  UNL1        0.0000
     22 C          65.1056   91.9527   13.0569 C.ar    1  UNL1        0.0000
     23 S          62.7541   80.6949   12.8810 S.O2    1  UNL1        0.0054
     24 O          62.9265   80.8514   11.3991 O.2     1  UNL1       -0.1689
     25 O          62.5818   80.5385   14.3628 O.2     1  UNL1       -0.1689
     26 C          62.6860   78.6044   11.3399 C.3     1  UNL1        0.0276
     27 C          62.5562   79.2189   12.7021 C.3     1  UNL1        0.1556
@<TRIPOS>BOND
     1    26    27    1
     2    27    23    1
     3    23    24    2
     4    23    25    2
     5    23     1    1
     6     1     2    2
     7     2     3    1
     8     3     4    2
     9     4     5    1
    10     5     6    2
    11     6    10    1
    12    10    11   ar
    13    11    12   ar
    14    12    17    1
    15    17    18   ar
    16    18    19   ar
    17    19    20   ar
    18    20    21   ar
    19    21    22   ar
    20    12    13   ar
    21    13    14   ar
    22    14    15   ar
    23    15    16    1
    24     6     7    1
    25     7     8    2
    26     8     9    1
    27     9     1    1
    28     8     4    1
    29    15    10   ar
    30    22    17   ar
@<TRIPOS>MOLECULE
*****
 27 30 0 0 0
SMALL
GASTEIGER

@<TRIPOS>ATOM
      1 C          59.3647   89.3176    7.0604 C.2     1  UNL1        0.0919
      2 C          58.9813   87.8709    7.1601 C.2     1  UNL1        0.0183
      3 C          59.5420   87.0206    8.2613 C.2     1  UNL1        0.0511
      4 C          60.4861   87.6170    9.2628 C.2     1  UNL1        0.2322
      5 N          61.1939   87.0306   10.4481 N.2     1  UNL1       -0.0308
      6 C          62.0148   88.1149   11.0810 C.2     1  UNL1        0.3749
      7 N          61.8143   89.3715   10.2868 N.2     1  UNL1       -0.0347
      8 C          60.8695   89.0637    9.1630 C.2     1  UNL1        0.2191
      9 C          60.3087   89.9140    8.0618 C.3     1  UNL1        0.1226
     10 C          62.8836   87.9683   12.2950 C.ar    1  UNL1        0.0845
     11 C          63.4281   89.1871   12.9792 C.ar    1  UNL1        0.0074
     12 C          64.2969   89.0405   14.1931 C.ar    1  UNL1        0.0002
     13 C          64.6212   87.6752   14.7229 C.ar    1  UNL1       -0.0003
     14 C          64.0767   86.4564   14.0387 C.ar    1  UNL1       -0.0040
     15 C          63.2079   86.6030   12.8247 C.ar    1  UNL1       -0.0144
     16 C          62.6635   85.3842   12.1405 C.3     1  UNL1        0.0313
     17 C          64.8413   90.2593   14.8773 C.ar    1  UNL1        0.0000
     18 C          66.1793   90.8082   14.4792 C.ar    1  UNL1        0.0000
     19 C          66.7238   92.0269   15.1634 C.ar    1  UNL1        0.0000
     20 C          65.9302   92.6969   16.2457 C.ar    1  UNL1        0.0000
     21 C          64.5922   92.1481   16.6438 C.ar    1  UNL1        0.0000
     22 C          64.0478   90.9293   15.9596 C.ar    1  UNL1        0.0000
     23 S          58.8039   90.1679    5.9592 S.O2    1  UNL1        0.0054
     24 O          60.1951   90.5230    5.5251 O.2     1  UNL1       -0.1689
     25 O          57.4128   89.8127    6.3934 O.2     1  UNL1       -0.1689
     26 C          59.0026   92.2189    4.3769 C.3     1  UNL1        0.0276
     27 C          58.2432   91.0182    4.8581 C.3     1  UNL1        0.1556
@<TRIPOS>BOND
     1    26    27    1
     2    27    23    1
     3    23    24    2
     4    23    25    2
     5    23     1    1
     6     1     2    2
     7     2     3    1
     8     3     4    2
     9     4     5    1
    10     5     6    2
    11     6    10    1
    12    10    11   ar
    13    11    12   ar
    14    12    17    1
    15    17    18   ar
    16    18    19   ar
    17    19    20   ar
    18    20    21   ar
    19    21    22   ar
    20    12    13   ar
    21    13    14   ar
    22    14    15   ar
    23    15    16    1
    24     6     7    1
    25     7     8    2
    26     8     9    1
    27     9     1    1
    28     8     4    1
    29    15    10   ar
    30    22    17   ar
@<TRIPOS>MOLECULE
*****
 27 30 0 0 0
SMALL
GASTEIGER

@<TRIPOS>ATOM
      1 C          62.8248   83.7947   13.9993 C.2     1  UNL1        0.0919
      2 C          62.7993   83.8688   15.4972 C.2     1  UNL1        0.0183
      3 C          63.1453   85.1532   16.1905 C.2     1  UNL1        0.0511
      4 C          63.5166   86.3634   15.3859 C.2     1  UNL1        0.2322
      5 N          63.9026   87.7561   15.7877 N.2     1  UNL1       -0.0308
      6 C          64.1667   88.5427   14.5380 C.2     1  UNL1        0.3749
      7 N          63.9438   87.6361   13.3639 N.2     1  UNL1       -0.0347
      8 C          63.5421   86.2892   13.8880 C.2     1  UNL1        0.2191
      9 C          63.1962   85.0049   13.1947 C.3     1  UNL1        0.1226
     10 C          64.5808   89.9830   14.4738 C.ar    1  UNL1        0.0845
     11 C          65.2672   90.5121   13.2495 C.ar    1  UNL1        0.0074
     12 C          65.6813   91.9524   13.1852 C.ar    1  UNL1        0.0002
     13 C          65.4091   92.8635   14.3453 C.ar    1  UNL1       -0.0003
     14 C          64.7227   92.3343   15.5696 C.ar    1  UNL1       -0.0040
     15 C          64.3086   90.8941   15.6338 C.ar    1  UNL1       -0.0144
     16 C          63.6222   90.3650   16.8581 C.3     1  UNL1        0.0313
     17 C          66.3677   92.4815   11.9609 C.ar    1  UNL1        0.0000
     18 C          67.6278   91.8338   11.4686 C.ar    1  UNL1        0.0000
     19 C          68.3142   92.3629   10.2443 C.ar    1  UNL1        0.0000
     20 C          67.7404   93.5397    9.5123 C.ar    1  UNL1        0.0000
     21 C          66.4803   94.1874   10.0046 C.ar    1  UNL1        0.0000
     22 C          65.7939   93.6583   11.2289 C.ar    1  UNL1        0.0000
     23 S          62.4789   82.5103   13.3060 S.O2    1  UNL1        0.0054
     24 O          62.3861   81.8185   14.6337 O.2     1  UNL1       -0.1689
     25 O          62.5716   83.2020   11.9782 O.2     1  UNL1       -0.1689
     26 C          62.3805   79.9141   13.2966 C.3     1  UNL1        0.0276
     27 C          62.1330   81.2259   12.6126 C.3     1  UNL1        0.1556
@<TRIPOS>BOND
     1    26    27    1
     2    27    23    1
     3    23    24    2
     4    23    25    2
     5    23     1    1
     6     1     2    2
     7     2     3    1
     8     3     4    2
     9     4     5    1
    10     5     6    2
    11     6    10    1
    12    10    11   ar
    13    11    12   ar
    14    12    17    1
    15    17    18   ar
    16    18    19   ar
    17    19    20   ar
    18    20    21   ar
    19    21    22   ar
    20    12    13   ar
    21    13    14   ar
    22    14    15   ar
    23    15    16    1
    24     6     7    1
    25     7     8    2
    26     8     9    1
    27     9     1    1
    28     8     4    1
    29    15    10   ar
    30    22    17   ar
