@<TRIPOS>MOLECULE
*****
 28 31 0 0 0
SMALL
GASTEIGER

@<TRIPOS>ATOM
      1 C          62.5230   89.8105   12.2900 C.3     1  UNL1        0.1318
      2 C          63.2057   85.1078   12.0563 C.3     1  UNL1        0.0222
      3 C          62.4071   85.9702   11.1243 C.3     1  UNL1        0.0842
      4 C          61.6555   85.5001    9.9143 C.3     1  UNL1        0.0486
      5 C          61.0038   86.6934    9.2809 C.ar    1  UNL1        0.0038
      6 C          60.1378   86.8363    8.0645 C.ar    1  UNL1        0.0549
      7 CL         59.7891   85.6287    7.2459 Cl      1  UNL1       -0.0825
      8 C          59.6205   88.1869    7.6667 C.ar    1  UNL1        0.0112
      9 C          59.9692   89.3945    8.4852 C.ar    1  UNL1        0.0021
     10 C          60.8352   89.2516    9.7016 C.ar    1  UNL1        0.0146
     11 C          61.3525   87.9010   10.0994 C.ar    1  UNL1        0.0506
     12 N          62.2197   87.4540   11.2387 N.am    1  UNL1       -0.2599
     13 C          62.7982   88.3361   12.3052 C.2     1  UNL1        0.2353
     14 O          63.6519   87.7437   13.3871 O.2     1  UNL1       -0.2741
     15 C          63.6613   90.7864   12.3303 C.ar    1  UNL1        0.0772
     16 N          64.2840   91.4641   11.1457 N.ar    1  UNL1       -0.2279
     17 C          65.3844   92.3525   11.6455 C.ar    1  UNL1        0.1629
     18 S          65.4418   92.2241   13.1389 S.2     1  UNL1       -0.0507
     19 C          64.3769   91.2561   13.5621 C.ar    1  UNL1        0.0601
     20 N          66.2716   93.2177   10.8003 N.pl3   1  UNL1       -0.2830
     21 C          66.0398   94.6985   10.7416 C.3     1  UNL1        0.1247
     22 C          66.9270   95.5636    9.8964 C.3     1  UNL1        0.1636
     23 O          68.0460   94.9479    9.1099 O.3     1  UNL1       -0.3501
     24 C          68.2779   93.4671    9.1686 C.3     1  UNL1        0.1636
     25 C          67.3907   92.6020   10.0138 C.3     1  UNL1        0.1247
     26 C          64.0797   90.8322   14.9699 C.2     1  UNL1        0.0801
     27 O          64.2911   89.4062   15.3844 O.co2   1  UNL1       -0.5440
     28 O          63.5711   91.8345   15.9634 O.co2   1  UNL1       -0.5440
@<TRIPOS>UNITY_ATOM_ATTR
27 1
charge -1
@<TRIPOS>BOND
     1     2     3    1
     2     3     4    1
     3     4     5    1
     4     5     6   ar
     5     6     7    1
     6     6     8   ar
     7     8     9   ar
     8     9    10   ar
     9    10    11   ar
    10    11    12    1
    11    12    13   am
    12    13    14    2
    13    13     1    1
    14     1    15    1
    15    15    16   ar
    16    16    17   ar
    17    17    20    1
    18    20    21    1
    19    21    22    1
    20    22    23    1
    21    23    24    1
    22    24    25    1
    23    17    18   ar
    24    18    19   ar
    25    19    26    1
    26    26    27   ar
    27    26    28   ar
    28    12     3    1
    29    19    15   ar
    30    11     5   ar
    31    25    20    1
@<TRIPOS>MOLECULE
*****
 28 31 0 0 0
SMALL
GASTEIGER

@<TRIPOS>ATOM
      1 C          63.8613   90.7105   13.0887 C.3     1  UNL1        0.1318
      2 C          61.5039   88.3616    9.6885 C.3     1  UNL1        0.0222
      3 C          62.1956   87.7920   10.8914 C.3     1  UNL1        0.0842
      4 C          62.2758   86.3394   11.2569 C.3     1  UNL1        0.0486
      5 C          63.0584   86.2245   12.5314 C.ar    1  UNL1        0.0038
      6 C          63.4557   85.0404   13.3620 C.ar    1  UNL1        0.0549
      7 CL         63.0522   83.6587   12.9397 Cl      1  UNL1       -0.0825
      8 C          64.2564   85.2378   14.6149 C.ar    1  UNL1        0.0112
      9 C          64.6599   86.6195   15.0371 C.ar    1  UNL1        0.0021
     10 C          64.2626   87.8036   14.2066 C.ar    1  UNL1        0.0146
     11 C          63.4619   87.6061   12.9537 C.ar    1  UNL1        0.0506
     12 N          62.9287   88.5748   11.9401 N.am    1  UNL1       -0.2599
     13 C          63.0987   90.0649   11.9701 C.2     1  UNL1        0.2353
     14 O          62.5059   90.9094   10.8812 O.2     1  UNL1       -0.2741
     15 C          64.8229   91.8240   12.7963 C.ar    1  UNL1        0.0772
     16 N          65.0227   92.4900   11.4672 N.ar    1  UNL1       -0.2279
     17 C          66.0767   93.5446   11.6310 C.ar    1  UNL1        0.1629
     18 S          66.5283   93.5305   13.0614 S.2     1  UNL1       -0.0507
     19 C          65.7533   92.4670   13.7816 C.ar    1  UNL1        0.0601
     20 N          66.5892   94.4539   10.5537 N.pl3   1  UNL1       -0.2830
     21 C          67.1658   93.8754    9.2955 C.3     1  UNL1        0.1247
     22 C          67.6783   94.7847    8.2182 C.3     1  UNL1        0.1636
     23 O          67.6142   96.2723    8.3990 O.3     1  UNL1       -0.3501
     24 C          67.0376   96.8508    9.6572 C.3     1  UNL1        0.1636
     25 C          66.5251   95.9415   10.7345 C.3     1  UNL1        0.1247
     26 C          65.8856   92.1094   15.2323 C.2     1  UNL1        0.0801
     27 O          67.2449   91.9151   15.8359 O.co2   1  UNL1       -0.5440
     28 O          64.6585   91.9461   16.0794 O.co2   1  UNL1       -0.5440
@<TRIPOS>UNITY_ATOM_ATTR
27 1
charge -1
@<TRIPOS>BOND
     1     2     3    1
     2     3     4    1
     3     4     5    1
     4     5     6   ar
     5     6     7    1
     6     6     8   ar
     7     8     9   ar
     8     9    10   ar
     9    10    11   ar
    10    11    12    1
    11    12    13   am
    12    13    14    2
    13    13     1    1
    14     1    15    1
    15    15    16   ar
    16    16    17   ar
    17    17    20    1
    18    20    21    1
    19    21    22    1
    20    22    23    1
    21    23    24    1
    22    24    25    1
    23    17    18   ar
    24    18    19   ar
    25    19    26    1
    26    26    27   ar
    27    26    28   ar
    28    12     3    1
    29    19    15   ar
    30    11     5   ar
    31    25    20    1
@<TRIPOS>MOLECULE
*****
 28 31 0 0 0
SMALL
GASTEIGER

@<TRIPOS>ATOM
      1 C          62.3758   89.7671   12.6739 C.3     1  UNL1        0.1318
      2 C          60.7291   87.8656    8.6356 C.3     1  UNL1        0.0222
      3 C          61.4673   87.1761    9.7445 C.3     1  UNL1        0.0842
      4 C          61.8337   85.7223    9.7893 C.3     1  UNL1        0.0486
      5 C          62.5615   85.4670   11.0758 C.ar    1  UNL1        0.0038
      6 C          63.1590   84.2218   11.6610 C.ar    1  UNL1        0.0549
      7 CL         63.0756   82.9257   10.9106 Cl      1  UNL1       -0.0825
      8 C          63.8400   84.2728   12.9965 C.ar    1  UNL1        0.0112
      9 C          63.9234   85.5690   13.7469 C.ar    1  UNL1        0.0021
     10 C          63.3259   86.8141   13.1617 C.ar    1  UNL1        0.0146
     11 C          62.6449   86.7632   11.8262 C.ar    1  UNL1        0.0506
     12 N          61.9687   87.8194   11.0034 N.am    1  UNL1       -0.2599
     13 C          61.8200   89.2652   11.3744 C.2     1  UNL1        0.2353
     14 O          61.1152   90.2092   10.4457 O.2     1  UNL1       -0.2741
     15 C          63.5381   90.7153   12.6763 C.ar    1  UNL1        0.0772
     16 N          64.1519   91.3607   11.4693 N.ar    1  UNL1       -0.2279
     17 C          65.2838   92.2288   11.9331 C.ar    1  UNL1        0.1629
     18 S          65.3697   92.1200   13.4267 S.2     1  UNL1       -0.0507
     19 C          64.2907   91.1846   13.8860 C.ar    1  UNL1        0.0601
     20 N          66.1737   93.0599   11.0571 N.pl3   1  UNL1       -0.2830
     21 C          67.2220   92.3997   10.2113 C.3     1  UNL1        0.1247
     22 C          68.1119   93.2308    9.3354 C.3     1  UNL1        0.1636
     23 O          67.9535   94.7221    9.3051 O.3     1  UNL1       -0.3501
     24 C          66.9052   95.3823   10.1509 C.3     1  UNL1        0.1636
     25 C          66.0153   94.5512   11.0269 C.3     1  UNL1        0.1247
     26 C          64.0131   90.7880   15.3058 C.2     1  UNL1        0.0801
     27 O          63.9522   89.3370   15.6810 O.co2   1  UNL1       -0.5440
     28 O          63.7965   91.8426   16.3503 O.co2   1  UNL1       -0.5440
@<TRIPOS>UNITY_ATOM_ATTR
27 1
charge -1
@<TRIPOS>BOND
     1     2     3    1
     2     3     4    1
     3     4     5    1
     4     5     6   ar
     5     6     7    1
     6     6     8   ar
     7     8     9   ar
     8     9    10   ar
     9    10    11   ar
    10    11    12    1
    11    12    13   am
    12    13    14    2
    13    13     1    1
    14     1    15    1
    15    15    16   ar
    16    16    17   ar
    17    17    20    1
    18    20    21    1
    19    21    22    1
    20    22    23    1
    21    23    24    1
    22    24    25    1
    23    17    18   ar
    24    18    19   ar
    25    19    26    1
    26    26    27   ar
    27    26    28   ar
    28    12     3    1
    29    19    15   ar
    30    11     5   ar
    31    25    20    1
@<TRIPOS>MOLECULE
*****
 28 31 0 0 0
SMALL
GASTEIGER

@<TRIPOS>ATOM
      1 C          64.1897   88.4341   14.3078 C.3     1  UNL1        0.1318
      2 C          62.7821   90.5742   10.2985 C.3     1  UNL1        0.0222
      3 C          63.7380   91.0916   11.3323 C.3     1  UNL1        0.0842
      4 C          64.4467   92.4130   11.2949 C.3     1  UNL1        0.0486
      5 C          65.2998   92.5165   12.5244 C.ar    1  UNL1        0.0038
      6 C          66.2183   93.5933   13.0210 C.ar    1  UNL1        0.0549
      7 CL         66.3999   94.8509   12.2237 Cl      1  UNL1       -0.0825
      8 C          66.9554   93.4126   14.3148 C.ar    1  UNL1        0.0112
      9 C          66.7739   92.1550   15.1121 C.ar    1  UNL1        0.0021
     10 C          65.8553   91.0782   14.6155 C.ar    1  UNL1        0.0146
     11 C          65.1183   91.2590   13.3216 C.ar    1  UNL1        0.0506
     12 N          64.1530   90.3783   12.5849 N.am    1  UNL1       -0.2599
     13 C          63.6850   89.0224   13.0237 C.2     1  UNL1        0.2353
     14 O          62.7122   88.2549   12.1783 O.2     1  UNL1       -0.2741
     15 C          63.7780   87.0492   14.7112 C.ar    1  UNL1        0.0772
     16 N          63.7966   85.8330   13.8334 N.ar    1  UNL1       -0.2279
     17 C          63.3055   84.6696   14.6429 C.ar    1  UNL1        0.1629
     18 S          62.9833   85.1668   16.0210 S.2     1  UNL1       -0.0507
     19 C          63.2754   86.6375   16.0632 C.ar    1  UNL1        0.0601
     20 N          63.1618   83.2570   14.1593 N.pl3   1  UNL1       -0.2830
     21 C          62.0270   82.4079   14.6505 C.3     1  UNL1        0.1247
     22 C          61.8832   80.9953   14.1669 C.3     1  UNL1        0.1636
     23 O          62.8743   80.4318   13.1921 O.3     1  UNL1       -0.3501
     24 C          64.0090   81.2809   12.7009 C.3     1  UNL1        0.1636
     25 C          64.1528   82.6935   13.1845 C.3     1  UNL1        0.1247
     26 C          63.0962   87.5383   17.2491 C.2     1  UNL1        0.0801
     27 O          63.2242   89.0242   17.0885 O.co2   1  UNL1       -0.5440
     28 O          62.7891   86.9532   18.5958 O.co2   1  UNL1       -0.5440
@<TRIPOS>UNITY_ATOM_ATTR
27 1
charge -1
@<TRIPOS>BOND
     1     2     3    1
     2     3     4    1
     3     4     5    1
     4     5     6   ar
     5     6     7    1
     6     6     8   ar
     7     8     9   ar
     8     9    10   ar
     9    10    11   ar
    10    11    12    1
    11    12    13   am
    12    13    14    2
    13    13     1    1
    14     1    15    1
    15    15    16   ar
    16    16    17   ar
    17    17    20    1
    18    20    21    1
    19    21    22    1
    20    22    23    1
    21    23    24    1
    22    24    25    1
    23    17    18   ar
    24    18    19   ar
    25    19    26    1
    26    26    27   ar
    27    26    28   ar
    28    12     3    1
    29    19    15   ar
    30    11     5   ar
    31    25    20    1
@<TRIPOS>MOLECULE
*****
 28 31 0 0 0
SMALL
GASTEIGER

@<TRIPOS>ATOM
      1 C          63.2489   90.3207   13.6231 C.3     1  UNL1        0.1318
      2 C          63.8676   85.6100   13.3731 C.3     1  UNL1        0.0222
      3 C          63.1072   86.4908   12.4265 C.3     1  UNL1        0.0842
      4 C          62.3815   86.0405   11.1934 C.3     1  UNL1        0.0486
      5 C          61.7648   87.2478   10.5515 C.ar    1  UNL1        0.0038
      6 C          60.9340   87.4123    9.3135 C.ar    1  UNL1        0.0549
      7 CL         60.5895   86.2158    8.4771 Cl      1  UNL1       -0.0825
      8 C          60.4478   88.7733    8.9120 C.ar    1  UNL1        0.0112
      9 C          60.7923   89.9698    9.7484 C.ar    1  UNL1        0.0021
     10 C          61.6231   89.8053   10.9865 C.ar    1  UNL1        0.0146
     11 C          62.1093   88.4443   11.3880 C.ar    1  UNL1        0.0506
     12 N          62.9390   87.9764   12.5468 N.am    1  UNL1       -0.2599
     13 C          63.5016   88.8422   13.6348 C.2     1  UNL1        0.2353
     14 O          64.3171   88.2295   14.7347 O.2     1  UNL1       -0.2741
     15 C          64.3594   91.2688   13.2798 C.ar    1  UNL1        0.0772
     16 N          64.8512   91.5877   11.8991 N.ar    1  UNL1       -0.2279
     17 C          65.9689   92.5804   12.0230 C.ar    1  UNL1        0.1629
     18 S          66.1679   92.8751   13.4803 S.2     1  UNL1       -0.0507
     19 C          65.1731   92.0644   14.2571 C.ar    1  UNL1        0.0601
     20 N          66.7504   93.1743   10.8887 N.pl3   1  UNL1       -0.2830
     21 C          67.6966   92.3180   10.1004 C.3     1  UNL1        0.1247
     22 C          68.4781   92.9119    8.9662 C.3     1  UNL1        0.1636
     23 O          68.3135   94.3621    8.6203 O.3     1  UNL1       -0.3501
     24 C          67.3673   95.2184    9.4086 C.3     1  UNL1        0.1636
     25 C          66.5858   94.6246   10.5428 C.3     1  UNL1        0.1247
     26 C          65.0191   92.0516   15.7491 C.2     1  UNL1        0.0801
     27 O          63.7368   91.5782   16.3667 O.co2   1  UNL1       -0.5440
     28 O          66.1476   92.5122   16.6235 O.co2   1  UNL1       -0.5440
@<TRIPOS>UNITY_ATOM_ATTR
27 1
charge -1
@<TRIPOS>BOND
     1     2     3    1
     2     3     4    1
     3     4     5    1
     4     5     6   ar
     5     6     7    1
     6     6     8   ar
     7     8     9   ar
     8     9    10   ar
     9    10    11   ar
    10    11    12    1
    11    12    13   am
    12    13    14    2
    13    13     1    1
    14     1    15    1
    15    15    16   ar
    16    16    17   ar
    17    17    20    1
    18    20    21    1
    19    21    22    1
    20    22    23    1
    21    23    24    1
    22    24    25    1
    23    17    18   ar
    24    18    19   ar
    25    19    26    1
    26    26    27   ar
    27    26    28   ar
    28    12     3    1
    29    19    15   ar
    30    11     5   ar
    31    25    20    1
@<TRIPOS>MOLECULE
*****
 28 31 0 0 0
SMALL
GASTEIGER

@<TRIPOS>ATOM
      1 C          62.5008   90.3703   12.0070 C.3     1  UNL1        0.1318
      2 C          66.1005   92.8978   10.1933 C.3     1  UNL1        0.0222
      3 C          65.8089   92.6152   11.6373 C.3     1  UNL1        0.0842
      4 C          66.6174   93.0881   12.8090 C.3     1  UNL1        0.0486
      5 C          65.9658   92.5753   14.0590 C.ar    1  UNL1        0.0038
      6 C          66.3189   92.7255   15.5090 C.ar    1  UNL1        0.0549
      7 CL         67.5301   93.5153   15.9081 Cl      1  UNL1       -0.0825
      8 C          65.4608   92.0859   16.5600 C.ar    1  UNL1        0.0112
      9 C          64.2497   91.2961   16.1609 C.ar    1  UNL1        0.0021
     10 C          63.8966   91.1459   14.7109 C.ar    1  UNL1        0.0146
     11 C          64.7547   91.7855   13.6599 C.ar    1  UNL1        0.0506
     12 N          64.6577   91.8102   12.1632 N.am    1  UNL1       -0.2599
     13 C          63.5959   91.1463   11.3375 C.2     1  UNL1        0.2353
     14 O          63.6293   91.2585    9.8419 O.2     1  UNL1       -0.2741
     15 C          62.2396   88.9473   11.6109 C.ar    1  UNL1        0.0772
     16 N          62.9374   87.7376   12.1582 N.ar    1  UNL1       -0.2279
     17 C          62.3638   86.5268   11.4835 C.ar    1  UNL1        0.1629
     18 S          61.3115   86.9883   10.5193 S.2     1  UNL1       -0.0507
     19 C          61.2347   88.4843   10.5980 C.ar    1  UNL1        0.0601
     20 N          62.7710   85.1043   11.7298 N.pl3   1  UNL1       -0.2830
     21 C          63.2698   84.2597   10.5950 C.3     1  UNL1        0.1247
     22 C          63.6770   82.8372   10.8413 C.3     1  UNL1        0.1636
     23 O          63.5854   82.2593   12.2224 O.3     1  UNL1       -0.3501
     24 C          63.0866   83.1039   13.3573 C.3     1  UNL1        0.1636
     25 C          62.6794   84.5264   13.1110 C.3     1  UNL1        0.1247
     26 C          60.3147   89.3630    9.8034 C.2     1  UNL1        0.0801
     27 O          60.0298   89.0447    8.3655 O.co2   1  UNL1       -0.5440
     28 O          59.6795   90.5600   10.4467 O.co2   1  UNL1       -0.5440
@<TRIPOS>UNITY_ATOM_ATTR
27 1
charge -1
@<TRIPOS>BOND
     1     2     3    1
     2     3     4    1
     3     4     5    1
     4     5     6   ar
     5     6     7    1
     6     6     8   ar
     7     8     9   ar
     8     9    10   ar
     9    10    11   ar
    10    11    12    1
    11    12    13   am
    12    13    14    2
    13    13     1    1
    14     1    15    1
    15    15    16   ar
    16    16    17   ar
    17    17    20    1
    18    20    21    1
    19    21    22    1
    20    22    23    1
    21    23    24    1
    22    24    25    1
    23    17    18   ar
    24    18    19   ar
    25    19    26    1
    26    26    27   ar
    27    26    28   ar
    28    12     3    1
    29    19    15   ar
    30    11     5   ar
    31    25    20    1
@<TRIPOS>MOLECULE
*****
 28 31 0 0 0
SMALL
GASTEIGER

@<TRIPOS>ATOM
      1 C          61.7475   87.3793   11.6779 C.3     1  UNL1        0.1318
      2 C          63.4564   84.1884    8.5904 C.3     1  UNL1        0.0222
      3 C          63.2772   84.0327   10.0715 C.3     1  UNL1        0.0842
      4 C          63.6112   82.8120   10.8766 C.3     1  UNL1        0.0486
      5 C          63.2729   83.0953   12.3102 C.ar    1  UNL1        0.0038
      6 C          63.3893   82.2626   13.5524 C.ar    1  UNL1        0.0549
      7 CL         63.9325   80.8668   13.4715 Cl      1  UNL1       -0.0825
      8 C          62.9624   82.8258   14.8755 C.ar    1  UNL1        0.0112
      9 C          62.4192   84.2216   14.9564 C.ar    1  UNL1        0.0021
     10 C          62.3028   85.0543   13.7142 C.ar    1  UNL1        0.0146
     11 C          62.7297   84.4912   12.3911 C.ar    1  UNL1        0.0506
     12 N          62.7323   85.0705   11.0075 N.am    1  UNL1       -0.2599
     13 C          62.2711   86.4461   10.6268 C.2     1  UNL1        0.2353
     14 O          62.3335   86.8886    9.1948 O.2     1  UNL1       -0.2741
     15 C          62.3248   88.7572   11.8126 C.ar    1  UNL1        0.0772
     16 N          63.5603   89.1242   12.5799 N.ar    1  UNL1       -0.2279
     17 C          63.7672   90.6038   12.4452 C.ar    1  UNL1        0.1629
     18 S          62.6595   91.1512   11.5946 S.2     1  UNL1       -0.0507
     19 C          61.7681   90.0098   11.2036 C.ar    1  UNL1        0.0601
     20 N          64.8853   91.3968   13.0542 N.pl3   1  UNL1       -0.2830
     21 C          65.5174   90.9403   14.3356 C.3     1  UNL1        0.1247
     22 C          66.6355   91.7333   14.9445 C.3     1  UNL1        0.1636
     23 O          67.1216   92.9829   14.2720 O.3     1  UNL1       -0.3501
     24 C          66.4895   93.4394   12.9906 C.3     1  UNL1        0.1636
     25 C          65.3714   92.6464   12.3816 C.3     1  UNL1        0.1247
     26 C          60.5362   90.1046   10.3530 C.2     1  UNL1        0.0801
     27 O          60.5069   89.4563    9.0007 O.co2   1  UNL1       -0.5440
     28 O          59.3336   90.8476   10.8548 O.co2   1  UNL1       -0.5440
@<TRIPOS>UNITY_ATOM_ATTR
27 1
charge -1
@<TRIPOS>BOND
     1     2     3    1
     2     3     4    1
     3     4     5    1
     4     5     6   ar
     5     6     7    1
     6     6     8   ar
     7     8     9   ar
     8     9    10   ar
     9    10    11   ar
    10    11    12    1
    11    12    13   am
    12    13    14    2
    13    13     1    1
    14     1    15    1
    15    15    16   ar
    16    16    17   ar
    17    17    20    1
    18    20    21    1
    19    21    22    1
    20    22    23    1
    21    23    24    1
    22    24    25    1
    23    17    18   ar
    24    18    19   ar
    25    19    26    1
    26    26    27   ar
    27    26    28   ar
    28    12     3    1
    29    19    15   ar
    30    11     5   ar
    31    25    20    1
@<TRIPOS>MOLECULE
*****
 28 31 0 0 0
SMALL
GASTEIGER

@<TRIPOS>ATOM
      1 C          62.3028   88.0761   12.2868 C.3     1  UNL1        0.1318
      2 C          62.8899   85.5269    8.3129 C.3     1  UNL1        0.0222
      3 C          62.8240   85.0280    9.7260 C.3     1  UNL1        0.0842
      4 C          62.9335   83.5970   10.1618 C.3     1  UNL1        0.0486
      5 C          62.8143   83.5572   11.6566 C.ar    1  UNL1        0.0038
      6 C          62.8489   82.4219   12.6363 C.ar    1  UNL1        0.0549
      7 CL         63.0321   81.0154   12.1484 Cl      1  UNL1       -0.0825
      8 C          62.7002   82.6932   14.1041 C.ar    1  UNL1        0.0112
      9 C          62.5169   84.0998   14.5920 C.ar    1  UNL1        0.0021
     10 C          62.4823   85.2350   13.6122 C.ar    1  UNL1        0.0146
     11 C          62.6310   84.9637   12.1445 C.ar    1  UNL1        0.0506
     12 N          62.6370   85.8727   10.9513 N.am    1  UNL1       -0.2599
     13 C          62.4831   87.3646   10.9788 C.2     1  UNL1        0.2353
     14 O          62.5094   88.1450    9.6979 O.2     1  UNL1       -0.2741
     15 C          63.2753   89.1399   12.7023 C.ar    1  UNL1        0.0772
     16 N          63.6339   90.3636   11.9125 N.ar    1  UNL1       -0.2279
     17 C          64.6401   91.1468   12.7026 C.ar    1  UNL1        0.1629
     18 S          64.9034   90.4070   13.9807 S.2     1  UNL1       -0.0507
     19 C          64.0598   89.1666   13.9805 C.ar    1  UNL1        0.0601
     20 N          65.2722   92.4422   12.2875 N.pl3   1  UNL1       -0.2830
     21 C          65.2137   92.8799   10.8539 C.3     1  UNL1        0.1247
     22 C          65.8457   94.1753   10.4388 C.3     1  UNL1        0.1636
     23 O          66.5362   95.0331   11.4573 O.3     1  UNL1       -0.3501
     24 C          66.5947   94.5955   12.8908 C.3     1  UNL1        0.1636
     25 C          65.9627   93.3001   13.3059 C.3     1  UNL1        0.1247
     26 C          64.0097   88.1344   15.0676 C.2     1  UNL1        0.0801
     27 O          64.8593   86.9020   14.9714 O.co2   1  UNL1       -0.5440
     28 O          63.1098   88.3345   16.2510 O.co2   1  UNL1       -0.5440
@<TRIPOS>UNITY_ATOM_ATTR
27 1
charge -1
@<TRIPOS>BOND
     1     2     3    1
     2     3     4    1
     3     4     5    1
     4     5     6   ar
     5     6     7    1
     6     6     8   ar
     7     8     9   ar
     8     9    10   ar
     9    10    11   ar
    10    11    12    1
    11    12    13   am
    12    13    14    2
    13    13     1    1
    14     1    15    1
    15    15    16   ar
    16    16    17   ar
    17    17    20    1
    18    20    21    1
    19    21    22    1
    20    22    23    1
    21    23    24    1
    22    24    25    1
    23    17    18   ar
    24    18    19   ar
    25    19    26    1
    26    26    27   ar
    27    26    28   ar
    28    12     3    1
    29    19    15   ar
    30    11     5   ar
    31    25    20    1
