@<TRIPOS>MOLECULE
*****
 32 35 0 0 0
SMALL
GASTEIGER

@<TRIPOS>ATOM
      1 C          64.0428   84.0832   14.2582 C.3     1  UNL1        0.0112
      2 C          63.3318   83.6528   13.0095 C.3     1  UNL1        0.0638
      3 C          63.8216   82.6248   13.9859 C.2     1  UNL1       -0.0171
      4 C          63.6004   81.1665   13.7136 C.2     1  UNL1        0.0378
      5 C          62.8894   80.7360   12.4649 C.2     1  UNL1        0.1948
      6 O          62.6682   79.2776   12.1927 O.2     1  UNL1       -0.2866
      7 C          62.3996   81.7640   11.4885 C.2     1  UNL1        0.0339
      8 C          62.6209   83.2223   11.7608 C.2     1  UNL1       -0.0354
      9 C          62.1311   84.2504   10.7843 C.3     1  UNL1        0.0226
     10 C          62.3523   85.7087   11.0566 C.3     1  UNL1        0.0071
     11 C          63.0633   86.1392   12.3053 C.3     1  UNL1        0.0335
     12 C          63.2845   87.5976   12.5775 C.3     1  UNL1        0.0079
     13 C          62.9174   88.8298   11.8050 C.3     1  UNL1        0.0323
     14 C          63.4014   90.0218   12.5762 C.3     1  UNL1        0.1416
     15 O          63.2464   91.4573   12.1697 O.3     1  UNL1       -0.3816
     16 C          64.0678   89.5262   13.8254 C.3     1  UNL1        0.1657
     17 O          64.7930   89.5182   15.1384 O.3     1  UNL1       -0.3773
     18 C          63.9955   88.0281   13.8262 C.3     1  UNL1        0.0339
     19 C          64.7091   88.4333   15.0819 C.3     1  UNL1        0.0029
     20 C          64.4853   87.0000   14.8027 C.3     1  UNL1        0.0347
     21 C          64.2640   85.5417   14.5304 C.3     1  UNL1        0.1409
     22 O          64.7538   84.5136   15.5068 O.3     1  UNL1       -0.3817
     23 C          63.5531   85.1112   13.2817 C.3     1  UNL1        0.1644
     24 F          62.8421   84.6808   12.0330 F       1  UNL1       -0.2369
     25 H          62.7795   91.5043   11.3207 H       1  UNL1        0.2105
     26 H          64.9857   90.4302   15.4070 H       1  UNL1        0.2109
     27 H          64.5312   83.6272   15.1819 H       1  UNL1        0.2104
     28 C          64.2890   90.9847   14.0977 C.2     1  UNL1        0.2061
     29 O          63.3531   91.7290   15.0032 O.2     1  UNL1       -0.2909
     30 C          65.4461   91.6988   13.4643 C.3     1  UNL1        0.2045
     31 O          65.2726   93.0956   12.9459 O.3     1  UNL1       -0.3749
     32 H          64.6567   93.0882   12.1966 H       1  UNL1        0.2110
@<TRIPOS>BOND
     1     2     1    1
     2     2     3    1
     3     3     4    2
     4     4     5    1
     5     5     6    2
     6     5     7    1
     7     7     8    2
     8     8     9    1
     9     9    10    1
    10    11    10    1
    11    11    12    1
    12    12    13    1
    13    13    14    1
    14    14    15    1
    15    14    16    1
    16    16    17    1
    17    16    28    1
    18    28    29    2
    19    28    30    1
    20    30    31    1
    21    16    18    1
    22    18    19    1
    23    18    20    1
    24    20    21    1
    25    21    22    1
    26    21    23    1
    27    23    24    1
    28     8     2    1
    29    23    11    1
    30    23     2    1
    31    18    12    1
    32    15    25    1
    33    17    26    1
    34    31    32    1
    35    22    27    1
@<TRIPOS>MOLECULE
*****
 32 35 0 0 0
SMALL
GASTEIGER

@<TRIPOS>ATOM
      1 C          65.2758   90.5085   14.3935 C.3     1  UNL1        0.0112
      2 C          65.7129   91.8249   13.8228 C.3     1  UNL1        0.0638
      3 C          66.2653   91.3564   15.1363 C.2     1  UNL1       -0.0171
      4 C          67.2549   92.2044   15.8790 C.2     1  UNL1        0.0378
      5 C          67.6920   93.5209   15.3082 C.2     1  UNL1        0.1948
      6 O          68.6816   94.3689   16.0510 O.2     1  UNL1       -0.2866
      7 C          67.1396   93.9894   13.9947 C.2     1  UNL1        0.0339
      8 C          66.1501   93.1414   13.2520 C.2     1  UNL1       -0.0354
      9 C          65.5976   93.6099   11.9384 C.3     1  UNL1        0.0226
     10 C          64.6081   92.7619   11.1957 C.3     1  UNL1        0.0071
     11 C          64.1709   91.4454   11.7665 C.3     1  UNL1        0.0335
     12 C          63.1813   90.5975   11.0237 C.3     1  UNL1        0.0079
     13 C          62.4698   90.7959    9.7183 C.3     1  UNL1        0.0323
     14 C          61.5928   89.6021    9.4822 C.3     1  UNL1        0.1416
     15 O          60.7025   89.3830    8.2950 O.3     1  UNL1       -0.3816
     16 C          61.7625   88.6658   10.6418 C.3     1  UNL1        0.1657
     17 O          61.6046   87.4709   11.5347 O.3     1  UNL1       -0.3773
     18 C          62.7442   89.2810   11.5944 C.3     1  UNL1        0.0339
     19 C          62.3227   87.9685   12.1860 C.3     1  UNL1        0.0029
     20 C          63.2966   88.8125   12.9080 C.3     1  UNL1        0.0347
     21 C          64.2862   89.6605   13.6507 C.3     1  UNL1        0.1409
     22 O          64.8386   89.1920   14.9643 O.3     1  UNL1       -0.3817
     23 C          64.7233   90.9769   13.0800 C.3     1  UNL1        0.1644
     24 F          65.1605   92.2934   12.5092 F       1  UNL1       -0.2369
     25 H          60.7772   90.1384    7.6911 H       1  UNL1        0.2105
     26 H          60.9737   86.8509   11.1367 H       1  UNL1        0.2109
     27 H          65.4599   89.8529   15.3080 H       1  UNL1        0.2104
     28 C          60.7729   87.8178    9.8990 C.2     1  UNL1        0.2061
     29 O          59.3026   88.0034   10.1312 O.2     1  UNL1       -0.2909
     30 C          61.2536   86.7843    8.9240 C.3     1  UNL1        0.2045
     31 O          62.6348   86.2142    9.0554 O.3     1  UNL1       -0.3749
     32 H          63.2891   86.9107    8.8893 H       1  UNL1        0.2110
@<TRIPOS>BOND
     1     2     1    1
     2     2     3    1
     3     3     4    2
     4     4     5    1
     5     5     6    2
     6     5     7    1
     7     7     8    2
     8     8     9    1
     9     9    10    1
    10    11    10    1
    11    11    12    1
    12    12    13    1
    13    13    14    1
    14    14    15    1
    15    14    16    1
    16    16    17    1
    17    16    28    1
    18    28    29    2
    19    28    30    1
    20    30    31    1
    21    16    18    1
    22    18    19    1
    23    18    20    1
    24    20    21    1
    25    21    22    1
    26    21    23    1
    27    23    24    1
    28     8     2    1
    29    23    11    1
    30    23     2    1
    31    18    12    1
    32    15    25    1
    33    17    26    1
    34    31    32    1
    35    22    27    1
@<TRIPOS>MOLECULE
*****
 32 35 0 0 0
SMALL
GASTEIGER

@<TRIPOS>ATOM
      1 C          62.5346   84.4655   11.6630 C.3     1  UNL1        0.0112
      2 C          63.0828   83.6450   12.7927 C.3     1  UNL1        0.0638
      3 C          62.3975   82.9719   11.6406 C.2     1  UNL1       -0.0171
      4 C          62.2604   81.4784   11.6182 C.2     1  UNL1        0.0378
      5 C          62.8086   80.6579   12.7479 C.2     1  UNL1        0.1948
      6 O          62.6715   79.1643   12.7255 O.2     1  UNL1       -0.2866
      7 C          63.4939   81.3309   13.9000 C.2     1  UNL1        0.0339
      8 C          63.6310   82.8245   13.9224 C.2     1  UNL1       -0.0354
      9 C          64.3163   83.4976   15.0745 C.3     1  UNL1        0.0226
     10 C          64.4534   84.9911   15.0969 C.3     1  UNL1        0.0071
     11 C          63.9052   85.8116   13.9672 C.3     1  UNL1        0.0335
     12 C          64.0423   87.3052   13.9896 C.3     1  UNL1        0.0079
     13 C          64.6632   88.2413   14.9836 C.3     1  UNL1        0.0323
     14 C          64.4988   89.6403   14.4682 C.3     1  UNL1        0.1416
     15 O          64.9736   90.8912   15.1463 O.3     1  UNL1       -0.3816
     16 C          63.7762   89.5688   13.1557 C.3     1  UNL1        0.1657
     17 O          63.1131   89.9878   11.8771 O.3     1  UNL1       -0.3773
     18 C          63.4941   88.1257   12.8599 C.3     1  UNL1        0.0339
     19 C          62.9376   88.9241   11.7185 C.3     1  UNL1        0.0029
     20 C          62.8087   87.4526   11.7078 C.3     1  UNL1        0.0347
     21 C          62.6717   85.9591   11.6854 C.3     1  UNL1        0.1409
     22 O          61.9863   85.2860   10.5333 O.3     1  UNL1       -0.3817
     23 C          63.2199   85.1386   12.8151 C.3     1  UNL1        0.1644
     24 F          63.7681   84.3181   13.9448 F       1  UNL1       -0.2369
     25 H          65.4102   90.6606   15.9813 H       1  UNL1        0.2105
     26 H          63.1493   90.9537   11.7955 H       1  UNL1        0.2109
     27 H          61.9833   84.3263   10.6747 H       1  UNL1        0.2104
     28 C          63.9133   91.0624   13.1781 C.2     1  UNL1        0.2061
     29 O          63.1826   91.8672   14.2117 O.2     1  UNL1       -0.2909
     30 C          64.7812   91.7512   12.1670 C.3     1  UNL1        0.2045
     31 O          66.0532   92.4177   12.6001 O.3     1  UNL1       -0.3749
     32 H          65.8443   93.1708   13.1745 H       1  UNL1        0.2110
@<TRIPOS>BOND
     1     2     1    1
     2     2     3    1
     3     3     4    2
     4     4     5    1
     5     5     6    2
     6     5     7    1
     7     7     8    2
     8     8     9    1
     9     9    10    1
    10    11    10    1
    11    11    12    1
    12    12    13    1
    13    13    14    1
    14    14    15    1
    15    14    16    1
    16    16    17    1
    17    16    28    1
    18    28    29    2
    19    28    30    1
    20    30    31    1
    21    16    18    1
    22    18    19    1
    23    18    20    1
    24    20    21    1
    25    21    22    1
    26    21    23    1
    27    23    24    1
    28     8     2    1
    29    23    11    1
    30    23     2    1
    31    18    12    1
    32    15    25    1
    33    17    26    1
    34    31    32    1
    35    22    27    1
@<TRIPOS>MOLECULE
*****
 32 35 0 0 0
SMALL
GASTEIGER

@<TRIPOS>ATOM
      1 C          64.7515   92.3132   11.8572 C.3     1  UNL1        0.0112
      2 C          65.1920   91.7395   13.1713 C.3     1  UNL1        0.0638
      3 C          65.6938   93.0836   12.7337 C.2     1  UNL1       -0.0171
      4 C          66.6362   93.8541   13.6102 C.2     1  UNL1        0.0378
      5 C          67.0768   93.2804   14.9243 C.2     1  UNL1        0.1948
      6 O          68.0192   94.0509   15.8008 O.2     1  UNL1       -0.2866
      7 C          66.5749   91.9363   15.3619 C.2     1  UNL1        0.0339
      8 C          65.6326   91.1659   14.4854 C.2     1  UNL1       -0.0354
      9 C          65.1307   89.8217   14.9229 C.3     1  UNL1        0.0226
     10 C          64.1883   89.0513   14.0464 C.3     1  UNL1        0.0071
     11 C          63.7478   89.6249   12.7323 C.3     1  UNL1        0.0335
     12 C          62.8054   88.8544   11.8558 C.3     1  UNL1        0.0079
     13 C          62.1485   87.5161   12.0208 C.3     1  UNL1        0.0323
     14 C          61.3020   87.2626   10.8087 C.3     1  UNL1        0.1416
     15 O          60.4682   86.0417   10.5553 O.3     1  UNL1       -0.3816
     16 C          61.4357   88.4443    9.8946 C.3     1  UNL1        0.1657
     17 O          61.2582   89.3498    8.7120 O.3     1  UNL1       -0.3773
     18 C          62.3648   89.4281   10.5417 C.3     1  UNL1        0.0339
     19 C          61.9389   90.0231    9.2322 C.3     1  UNL1        0.0029
     20 C          62.8667   90.7723   10.1041 C.3     1  UNL1        0.0347
     21 C          63.8091   91.5427   10.9806 C.3     1  UNL1        0.1409
     22 O          64.3109   92.8869   10.5431 O.3     1  UNL1       -0.3817
     23 C          64.2496   90.9690   12.2947 C.3     1  UNL1        0.1644
     24 F          64.6901   90.3954   13.6088 F       1  UNL1       -0.2369
     25 H          60.5570   85.4288   11.3018 H       1  UNL1        0.2105
     26 H          60.6552   88.9354    8.0751 H       1  UNL1        0.2109
     27 H          64.9059   93.2459   11.2199 H       1  UNL1        0.2104
     28 C          60.4933   87.6738    9.0181 C.2     1  UNL1        0.2061
     29 O          59.0158   87.9149    9.1113 O.2     1  UNL1       -0.2909
     30 C          61.0285   86.6623    8.0484 C.3     1  UNL1        0.2045
     31 O          60.0999   85.6753    7.4053 O.3     1  UNL1       -0.3749
     32 H          59.7432   85.0787    8.0818 H       1  UNL1        0.2110
@<TRIPOS>BOND
     1     2     1    1
     2     2     3    1
     3     3     4    2
     4     4     5    1
     5     5     6    2
     6     5     7    1
     7     7     8    2
     8     8     9    1
     9     9    10    1
    10    11    10    1
    11    11    12    1
    12    12    13    1
    13    13    14    1
    14    14    15    1
    15    14    16    1
    16    16    17    1
    17    16    28    1
    18    28    29    2
    19    28    30    1
    20    30    31    1
    21    16    18    1
    22    18    19    1
    23    18    20    1
    24    20    21    1
    25    21    22    1
    26    21    23    1
    27    23    24    1
    28     8     2    1
    29    23    11    1
    30    23     2    1
    31    18    12    1
    32    15    25    1
    33    17    26    1
    34    31    32    1
    35    22    27    1
@<TRIPOS>MOLECULE
*****
 32 35 0 0 0
SMALL
GASTEIGER

@<TRIPOS>ATOM
      1 C          62.8860   88.0655   12.2619 C.3     1  UNL1        0.0112
      2 C          62.3231   88.7077   11.0287 C.3     1  UNL1        0.0638
      3 C          61.9158   87.3128   11.4004 C.2     1  UNL1       -0.0171
      4 C          60.9456   86.5601   10.5390 C.2     1  UNL1        0.0378
      5 C          60.3828   87.2023    9.3058 C.2     1  UNL1        0.1948
      6 O          59.4126   86.4495    8.4443 O.2     1  UNL1       -0.2866
      7 C          60.7901   88.5972    8.9340 C.2     1  UNL1        0.0339
      8 C          61.7603   89.3499    9.7955 C.2     1  UNL1       -0.0354
      9 C          62.1677   90.7449    9.4237 C.3     1  UNL1        0.0226
     10 C          63.1378   91.4976   10.2852 C.3     1  UNL1        0.0071
     11 C          63.7007   90.8554   11.5184 C.3     1  UNL1        0.0335
     12 C          64.6709   91.6082   12.3798 C.3     1  UNL1        0.0079
     13 C          65.2533   92.9859   12.2677 C.3     1  UNL1        0.0323
     14 C          66.1761   93.1952   13.4315 C.3     1  UNL1        0.1416
     15 O          66.9715   94.4352   13.7142 O.3     1  UNL1       -0.3816
     16 C          66.1640   91.9468   14.2630 C.3     1  UNL1        0.1657
     17 O          66.4698   90.9702   15.3597 O.3     1  UNL1       -0.3773
     18 C          65.2337   90.9661   13.6130 C.3     1  UNL1        0.0339
     19 C          65.7826   90.3022   14.8411 C.3     1  UNL1        0.0029
     20 C          64.8264   89.5711   13.9848 C.3     1  UNL1        0.0347
     21 C          63.8562   88.8183   13.1234 C.3     1  UNL1        0.1409
     22 O          63.4488   87.4233   13.4951 O.3     1  UNL1       -0.3817
     23 C          63.2933   89.4605   11.8901 C.3     1  UNL1        0.1644
     24 F          62.7305   90.1027   10.6569 F       1  UNL1       -0.2369
     25 H          66.7997   95.0940   13.0233 H       1  UNL1        0.2105
     26 H          67.0997   91.3682   15.9807 H       1  UNL1        0.2109
     27 H          62.8214   87.0838   12.8379 H       1  UNL1        0.2104
     28 C          67.1342   92.6996   15.1244 C.2     1  UNL1        0.2061
     29 O          66.6374   93.4938   16.2959 O.2     1  UNL1       -0.2909
     30 C          68.6012   92.6582   14.8143 C.3     1  UNL1        0.2045
     31 O          69.0970   91.8727   13.6366 O.3     1  UNL1       -0.3749
     32 H          68.9362   90.9280   13.7872 H       1  UNL1        0.2110
@<TRIPOS>BOND
     1     2     1    1
     2     2     3    1
     3     3     4    2
     4     4     5    1
     5     5     6    2
     6     5     7    1
     7     7     8    2
     8     8     9    1
     9     9    10    1
    10    11    10    1
    11    11    12    1
    12    12    13    1
    13    13    14    1
    14    14    15    1
    15    14    16    1
    16    16    17    1
    17    16    28    1
    18    28    29    2
    19    28    30    1
    20    30    31    1
    21    16    18    1
    22    18    19    1
    23    18    20    1
    24    20    21    1
    25    21    22    1
    26    21    23    1
    27    23    24    1
    28     8     2    1
    29    23    11    1
    30    23     2    1
    31    18    12    1
    32    15    25    1
    33    17    26    1
    34    31    32    1
    35    22    27    1
@<TRIPOS>MOLECULE
*****
 32 35 0 0 0
SMALL
GASTEIGER

@<TRIPOS>ATOM
      1 C          62.7531   90.7388   10.1842 C.3     1  UNL1        0.0112
      2 C          62.2762   89.4366   10.7561 C.3     1  UNL1        0.0638
      3 C          61.6824   89.9582    9.4812 C.2     1  UNL1       -0.0171
      4 C          60.6118   89.1777    8.7782 C.2     1  UNL1        0.0378
      5 C          60.1349   87.8755    9.3500 C.2     1  UNL1        0.1948
      6 O          59.0641   87.0949    8.6468 O.2     1  UNL1       -0.2866
      7 C          60.7286   87.3539   10.6248 C.2     1  UNL1        0.0339
      8 C          61.7993   88.1345   11.3279 C.2     1  UNL1       -0.0354
      9 C          62.3932   87.6129   12.6028 C.3     1  UNL1        0.0226
     10 C          63.4639   88.3934   13.3058 C.3     1  UNL1        0.0071
     11 C          63.9408   89.6956   12.7340 C.3     1  UNL1        0.0335
     12 C          65.0115   90.4762   13.4371 C.3     1  UNL1        0.0079
     13 C          65.7781   90.2160   14.6999 C.3     1  UNL1        0.0323
     14 C          66.7288   91.3573   14.9085 C.3     1  UNL1        0.1416
     15 O          67.6898   91.5068   16.0505 O.3     1  UNL1       -0.3816
     16 C          66.5497   92.3229   13.7747 C.3     1  UNL1        0.1657
     17 O          66.7248   93.5244   12.8940 O.3     1  UNL1       -0.3773
     18 C          65.4884   91.7783   12.8653 C.3     1  UNL1        0.0339
     19 C          65.9484   93.0777   12.2736 C.3     1  UNL1        0.0029
     20 C          64.8945   92.2999   11.5904 C.3     1  UNL1        0.0347
     21 C          63.8239   91.5193   10.8874 C.3     1  UNL1        0.1409
     22 O          63.2300   92.0409    9.6124 O.3     1  UNL1       -0.3817
     23 C          63.3470   90.2172   11.4592 C.3     1  UNL1        0.1644
     24 F          62.8701   88.9150   12.0310 F       1  UNL1       -0.2369
     25 H          67.6062   90.7451   16.6453 H       1  UNL1        0.2105
     26 H          67.4079   94.1027   13.2681 H       1  UNL1        0.2109
     27 H          62.5573   91.4202    9.2914 H       1  UNL1        0.2104
     28 C          67.6204   93.1034   14.4778 C.2     1  UNL1        0.2061
     29 O          67.2486   94.2463   15.3753 O.2     1  UNL1       -0.2909
     30 C          69.0630   92.7410   14.2833 C.3     1  UNL1        0.2045
     31 O          69.4688   91.8701   13.1315 O.3     1  UNL1       -0.3749
     32 H          69.0931   90.9835   13.2484 H       1  UNL1        0.2110
@<TRIPOS>BOND
     1     2     1    1
     2     2     3    1
     3     3     4    2
     4     4     5    1
     5     5     6    2
     6     5     7    1
     7     7     8    2
     8     8     9    1
     9     9    10    1
    10    11    10    1
    11    11    12    1
    12    12    13    1
    13    13    14    1
    14    14    15    1
    15    14    16    1
    16    16    17    1
    17    16    28    1
    18    28    29    2
    19    28    30    1
    20    30    31    1
    21    16    18    1
    22    18    19    1
    23    18    20    1
    24    20    21    1
    25    21    22    1
    26    21    23    1
    27    23    24    1
    28     8     2    1
    29    23    11    1
    30    23     2    1
    31    18    12    1
    32    15    25    1
    33    17    26    1
    34    31    32    1
    35    22    27    1
@<TRIPOS>MOLECULE
*****
 32 35 0 0 0
SMALL
GASTEIGER

@<TRIPOS>ATOM
      1 C          63.5243   87.6603   13.1924 C.3     1  UNL1        0.0112
      2 C          63.0739   87.9306   11.7874 C.3     1  UNL1        0.0638
      3 C          63.4785   89.0683   12.6773 C.2     1  UNL1       -0.0171
      4 C          63.4326   90.4762   12.1621 C.2     1  UNL1        0.0378
      5 C          62.9822   90.7465   10.7571 C.2     1  UNL1        0.1948
      6 O          62.9364   92.1546   10.2420 O.2     1  UNL1       -0.2866
      7 C          62.5776   89.6088    9.8673 C.2     1  UNL1        0.0339
      8 C          62.6234   88.2008   10.3824 C.2     1  UNL1       -0.0354
      9 C          62.2188   87.0630    9.4926 C.3     1  UNL1        0.0226
     10 C          62.2646   85.6550   10.0077 C.3     1  UNL1        0.0071
     11 C          62.7151   85.3848   11.4127 C.3     1  UNL1        0.0335
     12 C          62.7609   83.9767   11.9279 C.3     1  UNL1        0.0079
     13 C          62.4247   82.6624   11.2880 C.3     1  UNL1        0.0323
     14 C          62.6674   81.5798   12.2975 C.3     1  UNL1        0.1416
     15 O          62.4602   80.1100   12.0812 O.3     1  UNL1       -0.3816
     16 C          63.1535   82.2251   13.5613 C.3     1  UNL1        0.1657
     17 O          63.6449   82.3963   14.9682 O.3     1  UNL1       -0.3773
     18 C          63.2113   83.7064   13.3329 C.3     1  UNL1        0.0339
     19 C          63.6654   83.4619   14.7415 C.3     1  UNL1        0.0029
     20 C          63.6160   84.8442   14.2228 C.3     1  UNL1        0.0347
     21 C          63.5701   86.2522   13.7076 C.3     1  UNL1        0.1409
     22 O          63.9747   87.3900   14.5974 O.3     1  UNL1       -0.3817
     23 C          63.1197   86.5225   12.3026 C.3     1  UNL1        0.1644
     24 F          62.6692   86.7927   10.8976 F       1  UNL1       -0.2369
     25 H          62.1409   79.9580   11.1779 H       1  UNL1        0.2105
     26 H          63.7103   81.5281   15.3958 H       1  UNL1        0.2109
     27 H          63.8873   88.2260   14.1133 H       1  UNL1        0.2104
     28 C          63.1994   80.8171   14.0765 C.2     1  UNL1        0.2061
     29 O          64.5205   80.1573   14.3395 O.2     1  UNL1       -0.2909
     30 C          61.9240   80.0688   14.3286 C.3     1  UNL1        0.2045
     31 O          60.6470   80.8204   14.5614 O.3     1  UNL1       -0.3749
     32 H          60.7108   81.3169   15.3923 H       1  UNL1        0.2110
@<TRIPOS>BOND
     1     2     1    1
     2     2     3    1
     3     3     4    2
     4     4     5    1
     5     5     6    2
     6     5     7    1
     7     7     8    2
     8     8     9    1
     9     9    10    1
    10    11    10    1
    11    11    12    1
    12    12    13    1
    13    13    14    1
    14    14    15    1
    15    14    16    1
    16    16    17    1
    17    16    28    1
    18    28    29    2
    19    28    30    1
    20    30    31    1
    21    16    18    1
    22    18    19    1
    23    18    20    1
    24    20    21    1
    25    21    22    1
    26    21    23    1
    27    23    24    1
    28     8     2    1
    29    23    11    1
    30    23     2    1
    31    18    12    1
    32    15    25    1
    33    17    26    1
    34    31    32    1
    35    22    27    1
@<TRIPOS>MOLECULE
*****
 32 35 0 0 0
SMALL
GASTEIGER

@<TRIPOS>ATOM
      1 C          60.9629   86.3627    9.0093 C.3     1  UNL1        0.0112
      2 C          60.8391   87.8541    9.1110 C.3     1  UNL1        0.0638
      3 C          60.2134   87.1265    7.9582 C.2     1  UNL1       -0.0171
      4 C          59.4639   87.8902    6.9071 C.2     1  UNL1        0.0378
      5 C          59.3401   89.3816    7.0088 C.2     1  UNL1        0.1948
      6 O          58.5905   90.1454    5.9576 O.2     1  UNL1       -0.2866
      7 C          59.9657   90.1093    8.1617 C.2     1  UNL1        0.0339
      8 C          60.7152   89.3455    9.2128 C.2     1  UNL1       -0.0354
      9 C          61.3409   90.0731   10.3657 C.3     1  UNL1        0.0226
     10 C          62.0904   89.3094   11.4168 C.3     1  UNL1        0.0071
     11 C          62.2142   87.8180   11.3150 C.3     1  UNL1        0.0335
     12 C          62.9638   87.0542   12.3662 C.3     1  UNL1        0.0079
     13 C          63.6806   87.4952   13.6078 C.3     1  UNL1        0.0323
     14 C          64.2475   86.2764   14.2735 C.3     1  UNL1        0.1416
     15 O          65.0414   86.2555   15.5459 O.3     1  UNL1       -0.3816
     16 C          63.8810   85.0821   13.4432 C.3     1  UNL1        0.1657
     17 O          63.7674   83.6619   12.9739 O.3     1  UNL1       -0.3773
     18 C          63.0877   85.5628   12.2645 C.3     1  UNL1        0.0339
     19 C          63.1976   84.0719   12.1405 C.3     1  UNL1        0.0029
     20 C          62.4620   84.8352   11.1116 C.3     1  UNL1        0.0347
     21 C          61.7125   85.5989   10.0605 C.3     1  UNL1        0.1409
     22 O          61.0868   84.8713    8.9075 O.3     1  UNL1       -0.3817
     23 C          61.5886   87.0903   10.1622 C.3     1  UNL1        0.1644
     24 F          61.4647   88.5817   10.2640 F       1  UNL1       -0.2369
     25 H          65.1370   87.1603   15.8823 H       1  UNL1        0.2105
     26 H          64.2279   83.0778   13.5965 H       1  UNL1        0.2109
     27 H          60.6445   85.5083    8.3249 H       1  UNL1        0.2104
     28 C          64.6305   84.3183   14.4944 C.2     1  UNL1        0.2061
     29 O          66.1267   84.2299   14.4336 O.2     1  UNL1       -0.2909
     30 C          63.8839   83.6430   15.6063 C.3     1  UNL1        0.2045
     31 O          62.8958   82.5581   15.2957 O.3     1  UNL1       -0.3749
     32 H          62.1490   82.9323   14.8026 H       1  UNL1        0.2110
@<TRIPOS>BOND
     1     2     1    1
     2     2     3    1
     3     3     4    2
     4     4     5    1
     5     5     6    2
     6     5     7    1
     7     7     8    2
     8     8     9    1
     9     9    10    1
    10    11    10    1
    11    11    12    1
    12    12    13    1
    13    13    14    1
    14    14    15    1
    15    14    16    1
    16    16    17    1
    17    16    28    1
    18    28    29    2
    19    28    30    1
    20    30    31    1
    21    16    18    1
    22    18    19    1
    23    18    20    1
    24    20    21    1
    25    21    22    1
    26    21    23    1
    27    23    24    1
    28     8     2    1
    29    23    11    1
    30    23     2    1
    31    18    12    1
    32    15    25    1
    33    17    26    1
    34    31    32    1
    35    22    27    1
@<TRIPOS>MOLECULE
*****
 32 35 0 0 0
SMALL
GASTEIGER

@<TRIPOS>ATOM
      1 C          61.4831   89.3986   10.1313 C.3     1  UNL1        0.0112
      2 C          60.8711   88.4063    9.1875 C.3     1  UNL1        0.0638
      3 C          60.6963   89.8766    8.9471 C.2     1  UNL1       -0.0171
      4 C          59.9094   90.3545    7.7629 C.2     1  UNL1        0.0378
      5 C          59.2973   89.3622    6.8191 C.2     1  UNL1        0.1948
      6 O          58.5104   89.8403    5.6349 O.2     1  UNL1       -0.2866
      7 C          59.4721   87.8920    7.0596 C.2     1  UNL1        0.0339
      8 C          60.2590   87.4141    8.2437 C.2     1  UNL1       -0.0354
      9 C          60.4338   85.9438    8.4842 C.3     1  UNL1        0.0226
     10 C          61.2206   85.4658    9.6684 C.3     1  UNL1        0.0071
     11 C          61.8327   86.4581   10.6122 C.3     1  UNL1        0.0335
     12 C          62.6196   85.9801   11.7964 C.3     1  UNL1        0.0079
     13 C          62.9585   84.6038   12.2870 C.3     1  UNL1        0.0323
     14 C          63.7800   84.7454   13.5340 C.3     1  UNL1        0.1416
     15 O          64.3353   83.6205   14.3565 O.3     1  UNL1       -0.3816
     16 C          63.9489   86.2093   13.8141 C.3     1  UNL1        0.1657
     17 O          64.3719   87.4870   14.4762 O.3     1  UNL1       -0.3773
     18 C          63.2317   86.9724   12.7402 C.3     1  UNL1        0.0339
     19 C          63.8340   87.9842   13.6695 C.3     1  UNL1        0.0029
     20 C          63.0569   88.4427   12.4998 C.3     1  UNL1        0.0347
     21 C          62.2700   88.9206   11.3156 C.3     1  UNL1        0.1409
     22 O          62.0952   90.3909   11.0751 O.3     1  UNL1       -0.3817
     23 C          61.6580   87.9283   10.3718 C.3     1  UNL1        0.1644
     24 F          61.0459   86.9360    9.4280 F       1  UNL1       -0.2369
     25 H          64.0818   82.7731   13.9584 H       1  UNL1        0.2105
     26 H          64.8959   87.2835   15.2667 H       1  UNL1        0.2109
     27 H          61.5651   90.5268   10.2742 H       1  UNL1        0.2104
     28 C          64.7358   85.7313   14.9983 C.2     1  UNL1        0.2061
     29 O          66.2060   85.4660   14.8643 O.2     1  UNL1       -0.2909
     30 C          64.0524   85.5185   16.3165 C.3     1  UNL1        0.2045
     31 O          62.7518   86.2072   16.6068 O.3     1  UNL1       -0.3749
     32 H          62.8963   87.1653   16.6517 H       1  UNL1        0.2110
@<TRIPOS>BOND
     1     2     1    1
     2     2     3    1
     3     3     4    2
     4     4     5    1
     5     5     6    2
     6     5     7    1
     7     7     8    2
     8     8     9    1
     9     9    10    1
    10    11    10    1
    11    11    12    1
    12    12    13    1
    13    13    14    1
    14    14    15    1
    15    14    16    1
    16    16    17    1
    17    16    28    1
    18    28    29    2
    19    28    30    1
    20    30    31    1
    21    16    18    1
    22    18    19    1
    23    18    20    1
    24    20    21    1
    25    21    22    1
    26    21    23    1
    27    23    24    1
    28     8     2    1
    29    23    11    1
    30    23     2    1
    31    18    12    1
    32    15    25    1
    33    17    26    1
    34    31    32    1
    35    22    27    1
