@<TRIPOS>MOLECULE
*****
 27 30 0 0 0
SMALL
GASTEIGER

@<TRIPOS>ATOM
      1 C          62.0221   87.3732   10.7887 C.3     1  UNL1        0.1271
      2 C          62.5919   88.5301   11.5550 C.ar    1  UNL1        0.0249
      3 C          63.5333   88.2830   12.6963 C.ar    1  UNL1       -0.0005
      4 C          64.1030   89.4398   13.4625 C.ar    1  UNL1       -0.0001
      5 C          63.7314   90.8438   13.0873 C.ar    1  UNL1        0.0031
      6 C          62.7900   91.0909   11.9460 C.ar    1  UNL1        0.0372
      7 C          62.2203   89.9341   11.1798 C.ar    1  UNL1        0.1420
      8 O          61.2789   90.1812   10.0384 O.3     1  UNL1       -0.4541
      9 C          60.7091   89.0243    9.2722 C.ar    1  UNL1        0.1420
     10 C          59.7677   89.2714    8.1308 C.ar    1  UNL1        0.0372
     11 C          59.1980   88.1146    7.3646 C.ar    1  UNL1        0.0031
     12 C          59.5696   86.7106    7.7398 C.ar    1  UNL1       -0.0001
     13 C          60.5109   86.4635    8.8812 C.ar    1  UNL1       -0.0005
     14 C          61.0807   87.6204    9.6474 C.ar    1  UNL1        0.0249
     15 O          62.9704   85.0450   10.1327 O.2     1  UNL1       -0.2740
     16 C          62.3937   85.9693   11.1639 C.2     1  UNL1        0.2373
     17 N          62.1887   85.4895   12.5702 N.am    1  UNL1       -0.2385
     18 H          61.8102   86.0961   13.2470 H       1  UNL1        0.1592
     19 C          62.5603   84.0855   12.9454 C.ar    1  UNL1        0.2950
     20 N          62.2717   82.8524   12.1417 N.ar    1  UNL1       -0.1904
     21 C          62.8188   81.6729   12.8897 C.ar    1  UNL1        0.1944
     22 C          63.4455   82.1771   14.1558 C.ar    1  UNL1        0.2058
     23 O          63.2857   83.6682   14.1902 O.2     1  UNL1       -0.4205
     24 C          62.7511   80.2407   12.4490 C.3     1  UNL1        0.4380
     25 F          62.6834   78.8085   12.0084 F       1  UNL1       -0.1643
     26 F          62.6434   79.8054   13.8805 F       1  UNL1       -0.1643
     27 F          62.8588   80.6760   11.0176 F       1  UNL1       -0.1643
@<TRIPOS>BOND
     1    15    16    2
     2    16    17   am
     3    17    19    1
     4    19    20   ar
     5    20    21   ar
     6    21    24    1
     7    24    25    1
     8    24    26    1
     9    24    27    1
    10    21    22   ar
    11    22    23   ar
    12    16     1    1
    13     1     2    1
    14     2     3   ar
    15     3     4   ar
    16     4     5   ar
    17     5     6   ar
    18     6     7   ar
    19     7     8    1
    20     8     9    1
    21     9    10   ar
    22    10    11   ar
    23    11    12   ar
    24    12    13   ar
    25    13    14   ar
    26    23    19   ar
    27    14     1    1
    28     7     2   ar
    29    14     9   ar
    30    17    18    1
@<TRIPOS>MOLECULE
*****
 27 30 0 0 0
SMALL
GASTEIGER

@<TRIPOS>ATOM
      1 C          62.0228   87.3736   10.7882 C.3     1  UNL1        0.1271
      2 C          61.0831   87.6219    9.6457 C.ar    1  UNL1        0.0249
      3 C          60.5137   86.4658    8.8781 C.ar    1  UNL1       -0.0005
      4 C          59.5740   86.7141    7.7356 C.ar    1  UNL1       -0.0001
      5 C          59.2037   88.1185    7.3607 C.ar    1  UNL1        0.0031
      6 C          59.7730   89.2745    8.1284 C.ar    1  UNL1        0.0372
      7 C          60.7127   89.0262    9.2708 C.ar    1  UNL1        0.1420
      8 O          61.2821   90.1824   10.0385 O.3     1  UNL1       -0.4541
      9 C          62.2218   89.9341   11.1810 C.ar    1  UNL1        0.1420
     10 C          62.7912   91.0902   11.9486 C.ar    1  UNL1        0.0372
     11 C          63.7309   90.8419   13.0911 C.ar    1  UNL1        0.0031
     12 C          64.1012   89.4375   13.4660 C.ar    1  UNL1       -0.0001
     13 C          63.5319   88.2814   12.6983 C.ar    1  UNL1       -0.0005
     14 C          62.5922   88.5297   11.5558 C.ar    1  UNL1        0.0249
     15 O          62.9682   85.0444   10.1314 O.2     1  UNL1       -0.2740
     16 C          62.3932   85.9692   11.1631 C.2     1  UNL1        0.2373
     17 N          62.1885   85.4896   12.5695 N.am    1  UNL1       -0.2385
     18 H          61.8111   86.0965   13.2465 H       1  UNL1        0.1592
     19 C          62.5589   84.0852   12.9443 C.ar    1  UNL1        0.2950
     20 N          62.2690   82.8524   12.1404 N.ar    1  UNL1       -0.1904
     21 C          62.8151   81.6723   12.8881 C.ar    1  UNL1        0.1944
     22 C          63.4426   82.1757   14.1542 C.ar    1  UNL1        0.2058
     23 O          63.2842   83.6669   14.1889 O.2     1  UNL1       -0.4205
     24 C          62.7459   80.2402   12.4472 C.3     1  UNL1        0.4380
     25 F          62.6768   78.8083   12.0062 F       1  UNL1       -0.1643
     26 F          62.8639   80.6751   11.0164 F       1  UNL1       -0.1643
     27 F          62.6279   79.8054   13.8779 F       1  UNL1       -0.1643
@<TRIPOS>BOND
     1    15    16    2
     2    16    17   am
     3    17    19    1
     4    19    20   ar
     5    20    21   ar
     6    21    24    1
     7    24    25    1
     8    24    26    1
     9    24    27    1
    10    21    22   ar
    11    22    23   ar
    12    16     1    1
    13     1     2    1
    14     2     3   ar
    15     3     4   ar
    16     4     5   ar
    17     5     6   ar
    18     6     7   ar
    19     7     8    1
    20     8     9    1
    21     9    10   ar
    22    10    11   ar
    23    11    12   ar
    24    12    13   ar
    25    13    14   ar
    26    23    19   ar
    27    14     1    1
    28     7     2   ar
    29    14     9   ar
    30    17    18    1
@<TRIPOS>MOLECULE
*****
 27 30 0 0 0
SMALL
GASTEIGER

@<TRIPOS>ATOM
      1 C          62.7827   87.0128   11.7726 C.3     1  UNL1        0.1271
      2 C          62.9655   85.6295   12.3232 C.ar    1  UNL1        0.0249
      3 C          62.4592   84.4440   11.5563 C.ar    1  UNL1       -0.0005
      4 C          62.6421   83.0608   12.1070 C.ar    1  UNL1       -0.0001
      5 C          63.3313   82.8631   13.4245 C.ar    1  UNL1        0.0031
      6 C          63.8377   84.0486   14.1914 C.ar    1  UNL1        0.0372
      7 C          63.6548   85.4318   13.6407 C.ar    1  UNL1        0.1420
      8 O          64.1612   86.6174   14.4076 O.3     1  UNL1       -0.4541
      9 C          63.9783   88.0006   13.8570 C.ar    1  UNL1        0.1420
     10 C          64.4847   89.1862   14.6239 C.ar    1  UNL1        0.0372
     11 C          64.3018   90.5694   14.0732 C.ar    1  UNL1        0.0031
     12 C          63.6125   90.7671   12.7557 C.ar    1  UNL1       -0.0001
     13 C          63.1061   89.5816   11.9888 C.ar    1  UNL1       -0.0005
     14 C          63.2890   88.1983   12.5395 C.ar    1  UNL1        0.0249
     15 O          62.7350   86.7183    9.1917 O.2     1  UNL1       -0.2740
     16 C          62.0934   87.2105   10.4551 C.2     1  UNL1        0.2373
     17 N          60.7626   87.9005   10.4009 N.am    1  UNL1       -0.2385
     18 H          60.3416   88.2236   11.2301 H       1  UNL1        0.1592
     19 C          60.0734   88.0982    9.0834 C.ar    1  UNL1        0.2950
     20 N          60.0961   89.3487    8.2553 N.ar    1  UNL1       -0.1904
     21 C          59.2772   89.1035    7.0228 C.ar    1  UNL1        0.1944
     22 C          58.7482   87.7014    7.0891 C.ar    1  UNL1        0.2058
     23 O          59.2403   87.0801    8.3626 O.2     1  UNL1       -0.4205
     24 C          59.0305   90.0876    5.9179 C.3     1  UNL1        0.4380
     25 F          58.7838   91.0716    4.8131 F       1  UNL1       -0.1643
     26 F          60.5046   90.1544    5.6484 F       1  UNL1       -0.1643
     27 F          57.5564   90.0207    6.1875 F       1  UNL1       -0.1643
@<TRIPOS>BOND
     1    15    16    2
     2    16    17   am
     3    17    19    1
     4    19    20   ar
     5    20    21   ar
     6    21    24    1
     7    24    25    1
     8    24    26    1
     9    24    27    1
    10    21    22   ar
    11    22    23   ar
    12    16     1    1
    13     1     2    1
    14     2     3   ar
    15     3     4   ar
    16     4     5   ar
    17     5     6   ar
    18     6     7   ar
    19     7     8    1
    20     8     9    1
    21     9    10   ar
    22    10    11   ar
    23    11    12   ar
    24    12    13   ar
    25    13    14   ar
    26    23    19   ar
    27    14     1    1
    28     7     2   ar
    29    14     9   ar
    30    17    18    1
@<TRIPOS>MOLECULE
*****
 27 30 0 0 0
SMALL
GASTEIGER

@<TRIPOS>ATOM
      1 C          63.3393   87.7952   12.9286 C.3     1  UNL1        0.1271
      2 C          62.5742   88.2725   11.7299 C.ar    1  UNL1        0.0249
      3 C          62.3711   89.7417   11.5060 C.ar    1  UNL1       -0.0005
      4 C          61.6060   90.2189   10.3074 C.ar    1  UNL1       -0.0001
      5 C          61.0439   89.2269    9.3327 C.ar    1  UNL1        0.0031
      6 C          61.2469   87.7577    9.5566 C.ar    1  UNL1        0.0372
      7 C          62.0121   87.2805   10.7552 C.ar    1  UNL1        0.1420
      8 O          62.2151   85.8112   10.9792 O.3     1  UNL1       -0.4541
      9 C          62.9803   85.3340   12.1779 C.ar    1  UNL1        0.1420
     10 C          63.1833   83.8647   12.4018 C.ar    1  UNL1        0.0372
     11 C          63.9485   83.3875   13.6005 C.ar    1  UNL1        0.0031
     12 C          64.5106   84.3795   14.5752 C.ar    1  UNL1       -0.0001
     13 C          64.3075   85.8487   14.3512 C.ar    1  UNL1       -0.0005
     14 C          63.5424   86.3260   13.1526 C.ar    1  UNL1        0.0249
     15 O          63.6724   88.6054   15.3746 O.2     1  UNL1       -0.2740
     16 C          63.9014   88.7871   13.9033 C.2     1  UNL1        0.2373
     17 N          64.6926   89.9608   13.4068 N.am    1  UNL1       -0.2385
     18 H          64.8429   90.0801   12.4412 H       1  UNL1        0.1592
     19 C          65.2547   90.9528   14.3815 C.ar    1  UNL1        0.2950
     20 N          66.6547   91.4911   14.3831 N.ar    1  UNL1       -0.1904
     21 C          66.7808   92.4516   15.5284 C.ar    1  UNL1        0.1944
     22 C          65.4586   92.5069   16.2346 C.ar    1  UNL1        0.2058
     23 O          64.5154   91.5806   15.5258 O.2     1  UNL1       -0.4205
     24 C          68.0127   93.2216   15.9018 C.3     1  UNL1        0.4380
     25 F          69.2445   93.9916   16.2751 F       1  UNL1       -0.1643
     26 F          67.6114   94.3195   14.9616 F       1  UNL1       -0.1643
     27 F          68.4139   92.1238   16.8419 F       1  UNL1       -0.1643
@<TRIPOS>BOND
     1    15    16    2
     2    16    17   am
     3    17    19    1
     4    19    20   ar
     5    20    21   ar
     6    21    24    1
     7    24    25    1
     8    24    26    1
     9    24    27    1
    10    21    22   ar
    11    22    23   ar
    12    16     1    1
    13     1     2    1
    14     2     3   ar
    15     3     4   ar
    16     4     5   ar
    17     5     6   ar
    18     6     7   ar
    19     7     8    1
    20     8     9    1
    21     9    10   ar
    22    10    11   ar
    23    11    12   ar
    24    12    13   ar
    25    13    14   ar
    26    23    19   ar
    27    14     1    1
    28     7     2   ar
    29    14     9   ar
    30    17    18    1
@<TRIPOS>MOLECULE
*****
 27 30 0 0 0
SMALL
GASTEIGER

@<TRIPOS>ATOM
      1 C          63.1339   87.3896   12.5564 C.3     1  UNL1        0.1271
      2 C          63.2663   85.9079   12.7494 C.ar    1  UNL1        0.0249
      3 C          64.0579   85.3698   13.9043 C.ar    1  UNL1       -0.0005
      4 C          64.1903   83.8882   14.0972 C.ar    1  UNL1       -0.0001
      5 C          63.5311   82.9447   13.1353 C.ar    1  UNL1        0.0031
      6 C          62.7395   83.4828   11.9804 C.ar    1  UNL1        0.0372
      7 C          62.6071   84.9644   11.7875 C.ar    1  UNL1        0.1420
      8 O          61.8155   85.5026   10.6326 O.3     1  UNL1       -0.4541
      9 C          61.6831   86.9842   10.4397 C.ar    1  UNL1        0.1420
     10 C          60.8914   87.5224    9.2848 C.ar    1  UNL1        0.0372
     11 C          60.7590   89.0040    9.0918 C.ar    1  UNL1        0.0031
     12 C          61.4182   89.9475   10.0538 C.ar    1  UNL1       -0.0001
     13 C          62.2098   89.4094   11.2086 C.ar    1  UNL1       -0.0005
     14 C          62.3422   87.9277   11.4016 C.ar    1  UNL1        0.0249
     15 O          64.5814   87.7949   14.6755 O.2     1  UNL1       -0.2740
     16 C          63.7931   88.3331   13.5184 C.2     1  UNL1        0.2373
     17 N          63.6640   89.8147   13.3232 N.am    1  UNL1       -0.2385
     18 H          63.1466   90.1679   12.5637 H       1  UNL1        0.1592
     19 C          64.3232   90.7581   14.2851 C.ar    1  UNL1        0.2950
     20 N          65.6628   91.4082   14.1043 N.ar    1  UNL1       -0.1904
     21 C          65.9261   92.2691   15.3042 C.ar    1  UNL1        0.1944
     22 C          64.7491   92.1510   16.2265 C.ar    1  UNL1        0.2058
     23 O          63.7584   91.2172   15.5967 O.2     1  UNL1       -0.4205
     24 C          67.1512   93.1017   15.5402 C.3     1  UNL1        0.4380
     25 F          68.3763   93.9343   15.7763 F       1  UNL1       -0.1643
     26 F          67.6171   92.1223   16.5765 F       1  UNL1       -0.1643
     27 F          66.6853   94.0810   14.5040 F       1  UNL1       -0.1643
@<TRIPOS>BOND
     1    15    16    2
     2    16    17   am
     3    17    19    1
     4    19    20   ar
     5    20    21   ar
     6    21    24    1
     7    24    25    1
     8    24    26    1
     9    24    27    1
    10    21    22   ar
    11    22    23   ar
    12    16     1    1
    13     1     2    1
    14     2     3   ar
    15     3     4   ar
    16     4     5   ar
    17     5     6   ar
    18     6     7   ar
    19     7     8    1
    20     8     9    1
    21     9    10   ar
    22    10    11   ar
    23    11    12   ar
    24    12    13   ar
    25    13    14   ar
    26    23    19   ar
    27    14     1    1
    28     7     2   ar
    29    14     9   ar
    30    17    18    1
@<TRIPOS>MOLECULE
*****
 27 30 0 0 0
SMALL
GASTEIGER

@<TRIPOS>ATOM
      1 C          62.9356   88.6559   12.1407 C.3     1  UNL1        0.1271
      2 C          61.9358   88.5135   11.0315 C.ar    1  UNL1        0.0249
      3 C          61.5460   89.7099   10.2150 C.ar    1  UNL1       -0.0005
      4 C          60.5463   89.5675    9.1059 C.ar    1  UNL1       -0.0001
      5 C          59.9364   88.2287    8.8132 C.ar    1  UNL1        0.0031
      6 C          60.3262   87.0323    9.6297 C.ar    1  UNL1        0.0372
      7 C          61.3260   87.1747   10.7388 C.ar    1  UNL1        0.1420
      8 O          61.7159   85.9783   11.5554 O.3     1  UNL1       -0.4541
      9 C          62.7156   86.1207   12.6645 C.ar    1  UNL1        0.1420
     10 C          63.1055   84.9243   13.4810 C.ar    1  UNL1        0.0372
     11 C          64.1052   85.0668   14.5902 C.ar    1  UNL1        0.0031
     12 C          64.7151   86.4056   14.8828 C.ar    1  UNL1       -0.0001
     13 C          64.3252   87.6019   14.0664 C.ar    1  UNL1       -0.0005
     14 C          63.3254   87.4595   12.9572 C.ar    1  UNL1        0.0249
     15 O          63.1988   90.7156   13.7024 O.2     1  UNL1       -0.2740
     16 C          63.5455   89.9947   12.4334 C.2     1  UNL1        0.2373
     17 N          64.5020   90.6127   11.4571 N.am    1  UNL1       -0.2385
     18 H          64.7296   90.1396   10.6243 H       1  UNL1        0.1592
     19 C          65.1119   91.9515   11.7498 C.ar    1  UNL1        0.2950
     20 N          65.3091   93.0650   10.7643 N.ar    1  UNL1       -0.1904
     21 C          65.9507   94.2135   11.4848 C.ar    1  UNL1        0.1944
     22 C          66.1502   93.8099   12.9156 C.ar    1  UNL1        0.2058
     23 O          65.6318   92.4119   13.0794 O.2     1  UNL1       -0.4205
     24 C          66.3269   95.5339   10.8805 C.3     1  UNL1        0.4380
     25 F          66.7030   96.8542   10.2763 F       1  UNL1       -0.1643
     26 F          65.9555   96.2248   12.1591 F       1  UNL1       -0.1643
     27 F          66.6982   94.8430    9.6019 F       1  UNL1       -0.1643
@<TRIPOS>BOND
     1    15    16    2
     2    16    17   am
     3    17    19    1
     4    19    20   ar
     5    20    21   ar
     6    21    24    1
     7    24    25    1
     8    24    26    1
     9    24    27    1
    10    21    22   ar
    11    22    23   ar
    12    16     1    1
    13     1     2    1
    14     2     3   ar
    15     3     4   ar
    16     4     5   ar
    17     5     6   ar
    18     6     7   ar
    19     7     8    1
    20     8     9    1
    21     9    10   ar
    22    10    11   ar
    23    11    12   ar
    24    12    13   ar
    25    13    14   ar
    26    23    19   ar
    27    14     1    1
    28     7     2   ar
    29    14     9   ar
    30    17    18    1
@<TRIPOS>MOLECULE
*****
 27 30 0 0 0
SMALL
GASTEIGER

@<TRIPOS>ATOM
      1 C          63.7579   90.9550   12.4990 C.3     1  UNL1        0.1271
      2 C          64.7238   91.9942   12.0120 C.ar    1  UNL1        0.0249
      3 C          64.8425   92.2785   10.5440 C.ar    1  UNL1       -0.0005
      4 C          65.8084   93.3177   10.0571 C.ar    1  UNL1       -0.0001
      5 C          66.6556   94.0725   11.0382 C.ar    1  UNL1        0.0031
      6 C          66.5369   93.7882   12.5061 C.ar    1  UNL1        0.0372
      7 C          65.5710   92.7490   12.9930 C.ar    1  UNL1        0.1420
      8 O          65.4523   92.4646   14.4611 O.3     1  UNL1       -0.4541
      9 C          64.4864   91.4255   14.9480 C.ar    1  UNL1        0.1420
     10 C          64.3676   91.1411   16.4161 C.ar    1  UNL1        0.0372
     11 C          63.4017   90.1019   16.9030 C.ar    1  UNL1        0.0031
     12 C          62.5545   89.3471   15.9219 C.ar    1  UNL1       -0.0001
     13 C          62.6732   89.6314   14.4539 C.ar    1  UNL1       -0.0005
     14 C          63.6392   90.6707   13.9669 C.ar    1  UNL1        0.0249
     15 O          62.1032   90.9443   10.4959 O.2     1  UNL1       -0.2740
     16 C          62.9107   90.2002   11.5179 C.2     1  UNL1        0.2373
     17 N          62.8709   88.7013   11.5587 N.am    1  UNL1       -0.2385
     18 H          63.4009   88.2129   12.2295 H       1  UNL1        0.1592
     19 C          62.0237   87.9465   10.5777 C.ar    1  UNL1        0.2950
     20 N          62.5260   87.0405    9.4929 N.ar    1  UNL1       -0.1904
     21 C          61.3382   86.4992    8.7539 C.ar    1  UNL1        0.1944
     22 C          60.1017   87.0706    9.3820 C.ar    1  UNL1        0.2058
     23 O          60.5254   87.9651   10.5091 O.2     1  UNL1       -0.4205
     24 C          61.3796   85.5526    7.5910 C.3     1  UNL1        0.4380
     25 F          61.4212   84.6061    6.4282 F       1  UNL1       -0.1643
     26 F          62.8674   85.4335    7.7410 F       1  UNL1       -0.1643
     27 F          59.8919   85.6717    7.4411 F       1  UNL1       -0.1643
@<TRIPOS>BOND
     1    15    16    2
     2    16    17   am
     3    17    19    1
     4    19    20   ar
     5    20    21   ar
     6    21    24    1
     7    24    25    1
     8    24    26    1
     9    24    27    1
    10    21    22   ar
    11    22    23   ar
    12    16     1    1
    13     1     2    1
    14     2     3   ar
    15     3     4   ar
    16     4     5   ar
    17     5     6   ar
    18     6     7   ar
    19     7     8    1
    20     8     9    1
    21     9    10   ar
    22    10    11   ar
    23    11    12   ar
    24    12    13   ar
    25    13    14   ar
    26    23    19   ar
    27    14     1    1
    28     7     2   ar
    29    14     9   ar
    30    17    18    1
@<TRIPOS>MOLECULE
*****
 27 30 0 0 0
SMALL
GASTEIGER

@<TRIPOS>ATOM
      1 C          63.7685   90.9585   12.4828 C.3     1  UNL1        0.1271
      2 C          63.6510   90.6741   13.9510 C.ar    1  UNL1        0.0249
      3 C          62.6840   89.6365   14.4389 C.ar    1  UNL1       -0.0005
      4 C          62.5665   89.3521   15.9070 C.ar    1  UNL1       -0.0001
      5 C          63.4161   90.1054   16.8872 C.ar    1  UNL1        0.0031
      6 C          64.3832   91.1430   16.3992 C.ar    1  UNL1        0.0372
      7 C          64.5006   91.4274   14.9312 C.ar    1  UNL1        0.1420
      8 O          65.4677   92.4651   14.4432 O.3     1  UNL1       -0.4541
      9 C          65.5851   92.7495   12.9751 C.ar    1  UNL1        0.1420
     10 C          66.5521   93.7872   12.4871 C.ar    1  UNL1        0.0372
     11 C          66.6696   94.0715   11.0191 C.ar    1  UNL1        0.0031
     12 C          65.8200   93.3182   10.0389 C.ar    1  UNL1       -0.0001
     13 C          64.8530   92.2806   10.5268 C.ar    1  UNL1       -0.0005
     14 C          64.7355   91.9962   11.9949 C.ar    1  UNL1        0.0249
     15 O          62.0930   90.9516   10.4972 O.2     1  UNL1       -0.2740
     16 C          62.9189   90.2052   11.5027 C.2     1  UNL1        0.2373
     17 N          62.8951   88.7057   11.5280 N.am    1  UNL1       -0.2385
     18 H          63.4372   88.2158   12.1879 H       1  UNL1        0.1592
     19 C          62.0455   87.9524   10.5478 C.ar    1  UNL1        0.2950
     20 N          62.5441   87.0284    9.4765 N.ar    1  UNL1       -0.1904
     21 C          61.3549   86.4957    8.7334 C.ar    1  UNL1        0.1944
     22 C          60.1214   87.0906    9.3455 C.ar    1  UNL1        0.2058
     23 O          60.5482   87.9908   10.4668 O.2     1  UNL1       -0.4205
     24 C          61.3926   85.5367    7.5807 C.3     1  UNL1        0.4380
     25 F          61.4303   84.5777    6.4280 F       1  UNL1       -0.1643
     26 F          59.9079   85.6749    7.4171 F       1  UNL1       -0.1643
     27 F          62.8773   85.3985    7.7442 F       1  UNL1       -0.1643
@<TRIPOS>BOND
     1    15    16    2
     2    16    17   am
     3    17    19    1
     4    19    20   ar
     5    20    21   ar
     6    21    24    1
     7    24    25    1
     8    24    26    1
     9    24    27    1
    10    21    22   ar
    11    22    23   ar
    12    16     1    1
    13     1     2    1
    14     2     3   ar
    15     3     4   ar
    16     4     5   ar
    17     5     6   ar
    18     6     7   ar
    19     7     8    1
    20     8     9    1
    21     9    10   ar
    22    10    11   ar
    23    11    12   ar
    24    12    13   ar
    25    13    14   ar
    26    23    19   ar
    27    14     1    1
    28     7     2   ar
    29    14     9   ar
    30    17    18    1
@<TRIPOS>MOLECULE
*****
 27 30 0 0 0
SMALL
GASTEIGER

@<TRIPOS>ATOM
      1 C          63.3750   88.8316   12.6563 C.3     1  UNL1        0.1271
      2 C          64.2193   89.9966   13.0806 C.ar    1  UNL1        0.0249
      3 C          65.1217   89.8743   14.2725 C.ar    1  UNL1       -0.0005
      4 C          65.9660   91.0392   14.6967 C.ar    1  UNL1       -0.0001
      5 C          65.9079   92.3266   13.9290 C.ar    1  UNL1        0.0031
      6 C          65.0055   92.4489   12.7371 C.ar    1  UNL1        0.0372
      7 C          64.1612   91.2840   12.3129 C.ar    1  UNL1        0.1420
      8 O          63.2587   91.4063   11.1209 O.3     1  UNL1       -0.4541
      9 C          62.4145   90.2413   10.6967 C.ar    1  UNL1        0.1420
     10 C          61.5120   90.3636    9.5048 C.ar    1  UNL1        0.0372
     11 C          60.6677   89.1987    9.0806 C.ar    1  UNL1        0.0031
     12 C          60.7259   87.9113    9.8483 C.ar    1  UNL1       -0.0001
     13 C          61.6282   87.7890   11.0402 C.ar    1  UNL1       -0.0005
     14 C          62.4726   88.9540   11.4644 C.ar    1  UNL1        0.0249
     15 O          63.6872   87.5634   14.9023 O.2     1  UNL1       -0.2740
     16 C          63.4331   87.5443   13.4240 C.2     1  UNL1        0.2373
     17 N          63.2371   86.2379   12.7136 N.am    1  UNL1       -0.2385
     18 H          63.0704   86.2253   11.7434 H       1  UNL1        0.1592
     19 C          63.2953   84.9505   13.4813 C.ar    1  UNL1        0.2950
     20 N          62.8671   83.6038   12.9782 N.ar    1  UNL1       -0.1904
     21 C          63.0989   82.6048   14.0729 C.ar    1  UNL1        0.1944
     22 C          63.6704   83.3341   15.2525 C.ar    1  UNL1        0.2058
     23 O          63.7918   84.7838   14.8869 O.2     1  UNL1       -0.4205
     24 C          62.8100   81.1347   14.0006 C.3     1  UNL1        0.4380
     25 F          62.5212   79.6646   13.9282 F       1  UNL1       -0.1643
     26 F          64.1883   80.8904   13.4613 F       1  UNL1       -0.1643
     27 F          61.4318   81.3790   14.5398 F       1  UNL1       -0.1643
@<TRIPOS>BOND
     1    15    16    2
     2    16    17   am
     3    17    19    1
     4    19    20   ar
     5    20    21   ar
     6    21    24    1
     7    24    25    1
     8    24    26    1
     9    24    27    1
    10    21    22   ar
    11    22    23   ar
    12    16     1    1
    13     1     2    1
    14     2     3   ar
    15     3     4   ar
    16     4     5   ar
    17     5     6   ar
    18     6     7   ar
    19     7     8    1
    20     8     9    1
    21     9    10   ar
    22    10    11   ar
    23    11    12   ar
    24    12    13   ar
    25    13    14   ar
    26    23    19   ar
    27    14     1    1
    28     7     2   ar
    29    14     9   ar
    30    17    18    1
