@<TRIPOS>MOLECULE
*****
 33 37 0 0 0
SMALL
GASTEIGER

@<TRIPOS>ATOM
      1 C          62.6622   86.7142   11.8326 C.2     1  UNL1        0.2506
      2 O          63.4162   87.4112   12.9260 O.2     1  UNL1       -0.2699
      3 N          61.5932   87.4448   11.0753 N.am    1  UNL1       -0.2724
      4 C          60.8391   86.7478    9.9818 C.3     1  UNL1        0.1257
      5 C          59.7702   87.4783    9.2245 C.3     1  UNL1        0.1635
      6 O          59.4553   88.9059    9.5606 O.3     1  UNL1       -0.3527
      7 C          60.2093   89.6028   10.6540 C.3     1  UNL1        0.1337
      8 C          59.8944   91.0304   10.9901 C.3     1  UNL1        0.0338
      9 C          61.2783   88.8723   11.4114 C.3     1  UNL1        0.1071
     10 C          63.9219   81.0040   10.4882 C.3     1  UNL1        0.0311
     11 C          63.6069   82.4316   10.8243 C.ar    1  UNL1       -0.0203
     12 C          63.3696   83.4258    9.7265 C.ar    1  UNL1       -0.0040
     13 C          63.0547   84.8533   10.0626 C.ar    1  UNL1        0.0058
     14 C          62.9771   85.2867   11.4965 C.ar    1  UNL1        0.0729
     15 C          63.2144   84.2925   12.5943 C.ar    1  UNL1        0.1069
     16 C          63.5294   82.8649   12.2582 C.ar    1  UNL1        0.0168
     17 N          63.1369   84.7258   14.0283 N.ar    1  UNL1       -0.1477
     18 N          64.2620   85.2983   14.8384 N.ar    1  UNL1       -0.1447
     19 C          63.7412   85.5891   16.2147 C.ar    1  UNL1        0.1446
     20 C          62.2940   85.1962   16.2551 C.ar    1  UNL1        0.1446
     21 N          61.9206   84.6627   14.9039 N.ar    1  UNL1       -0.1447
     22 C          62.0323   89.5693   12.5048 C.3     1  UNL1        0.0487
     23 C          63.1504   90.5092   12.1635 C.ar    1  UNL1       -0.0189
     24 C          63.2830   91.0414   10.7674 C.ar    1  UNL1       -0.0041
     25 C          64.4011   91.9813   10.4261 C.ar    1  UNL1        0.0013
     26 C          65.3866   92.3890   11.4809 C.ar    1  UNL1        0.0209
     27 C          65.2540   91.8567   12.8770 C.ar    1  UNL1        0.1026
     28 C          64.1359   90.9168   13.2183 C.ar    1  UNL1        0.0167
     29 N          66.2394   92.2644   13.9319 N.ar    1  UNL1       -0.1478
     30 N          65.9109   92.6485   15.3442 N.ar    1  UNL1       -0.1447
     31 C          67.1949   92.9810   16.0448 C.ar    1  UNL1        0.1446
     32 C          68.3170   92.8024   15.0654 C.ar    1  UNL1        0.1446
     33 N          67.7265   92.3596   13.7596 N.ar    1  UNL1       -0.1447
@<TRIPOS>BOND
     1    10    11    1
     2    11    12   ar
     3    12    13   ar
     4    13    14   ar
     5    14     1    1
     6     1     2    2
     7     1     3   am
     8     3     4    1
     9     4     5    1
    10     5     6    1
    11     6     7    1
    12     7     8    1
    13     7     9    1
    14     9    22    1
    15    22    23    1
    16    23    24   ar
    17    24    25   ar
    18    25    26   ar
    19    26    27   ar
    20    27    29    1
    21    29    30   ar
    22    30    31   ar
    23    31    32   ar
    24    32    33   ar
    25    27    28   ar
    26    14    15   ar
    27    15    17    1
    28    17    18   ar
    29    18    19   ar
    30    19    20   ar
    31    20    21   ar
    32    15    16   ar
    33    16    11   ar
    34     9     3    1
    35    28    23   ar
    36    21    17   ar
    37    33    29   ar
@<TRIPOS>MOLECULE
*****
 33 37 0 0 0
SMALL
GASTEIGER

@<TRIPOS>ATOM
      1 C          63.5321   87.5407   13.2746 C.2     1  UNL1        0.2506
      2 O          63.7023   88.5374   12.1666 O.2     1  UNL1       -0.2699
      3 N          63.4394   88.0086   14.6967 N.am    1  UNL1       -0.2724
      4 C          63.2692   87.0119   15.8047 C.3     1  UNL1        0.1257
      5 C          63.1765   87.4799   17.2268 C.3     1  UNL1        0.1635
      6 O          63.2539   88.9446   17.5409 O.3     1  UNL1       -0.3527
      7 C          63.4241   89.9413   16.4330 C.3     1  UNL1        0.1337
      8 C          63.5015   91.4060   16.7471 C.3     1  UNL1        0.0338
      9 C          63.5168   89.4733   15.0108 C.3     1  UNL1        0.1071
     10 C          63.2223   81.6819   12.0181 C.3     1  UNL1        0.0311
     11 C          63.2998   83.1466   12.3322 C.ar    1  UNL1       -0.0203
     12 C          64.1757   83.6285   13.4504 C.ar    1  UNL1       -0.0040
     13 C          64.2531   85.0932   13.7645 C.ar    1  UNL1        0.0058
     14 C          63.4547   86.0760   12.9605 C.ar    1  UNL1        0.0729
     15 C          62.5787   85.5940   11.8422 C.ar    1  UNL1        0.1069
     16 C          62.5013   84.1293   11.5281 C.ar    1  UNL1        0.0168
     17 N          61.7802   86.5768   11.0381 N.ar    1  UNL1       -0.1477
     18 N          62.0401   86.9681    9.6135 N.ar    1  UNL1       -0.1447
     19 C          61.0022   87.9739    9.2123 C.ar    1  UNL1        0.1446
     20 C          60.1007   88.2042   10.3889 C.ar    1  UNL1        0.1446
     21 N          60.5816   87.3408   11.5173 N.ar    1  UNL1       -0.1447
     22 C          63.6870   90.4700   13.9028 C.3     1  UNL1        0.0487
     23 C          64.9997   91.1727   13.7212 C.ar    1  UNL1       -0.0189
     24 C          66.1301   90.9075   14.6709 C.ar    1  UNL1       -0.0041
     25 C          67.4428   91.6102   14.4892 C.ar    1  UNL1        0.0013
     26 C          67.6252   92.5780   13.3578 C.ar    1  UNL1        0.0209
     27 C          66.4949   92.8431   12.4081 C.ar    1  UNL1        0.1026
     28 C          65.1821   92.1405   12.5898 C.ar    1  UNL1        0.0167
     29 N          66.6772   93.8109   11.2766 N.ar    1  UNL1       -0.1478
     30 N          65.9502   95.1114   11.1029 N.ar    1  UNL1       -0.1447
     31 C          66.4423   95.7523    9.8392 C.ar    1  UNL1        0.1446
     32 C          67.4735   94.8480    9.2318 C.ar    1  UNL1        0.1446
     33 N          67.6187   93.6481   10.1202 N.ar    1  UNL1       -0.1447
@<TRIPOS>BOND
     1    10    11    1
     2    11    12   ar
     3    12    13   ar
     4    13    14   ar
     5    14     1    1
     6     1     2    2
     7     1     3   am
     8     3     4    1
     9     4     5    1
    10     5     6    1
    11     6     7    1
    12     7     8    1
    13     7     9    1
    14     9    22    1
    15    22    23    1
    16    23    24   ar
    17    24    25   ar
    18    25    26   ar
    19    26    27   ar
    20    27    29    1
    21    29    30   ar
    22    30    31   ar
    23    31    32   ar
    24    32    33   ar
    25    27    28   ar
    26    14    15   ar
    27    15    17    1
    28    17    18   ar
    29    18    19   ar
    30    19    20   ar
    31    20    21   ar
    32    15    16   ar
    33    16    11   ar
    34     9     3    1
    35    28    23   ar
    36    21    17   ar
    37    33    29   ar
@<TRIPOS>MOLECULE
*****
 33 37 0 0 0
SMALL
GASTEIGER

@<TRIPOS>ATOM
      1 C          64.0254   84.9393   14.0909 C.2     1  UNL1        0.2506
      2 O          65.1343   85.6777   13.4016 O.2     1  UNL1       -0.2699
      3 N          63.2838   85.5862   15.2229 N.am    1  UNL1       -0.2724
      4 C          62.1749   84.8478   15.9122 C.3     1  UNL1        0.1257
      5 C          61.4333   85.4947   17.0442 C.3     1  UNL1        0.1635
      6 O          61.8006   86.8800   17.4870 O.3     1  UNL1       -0.3527
      7 C          62.9095   87.6184   16.7978 C.3     1  UNL1        0.1337
      8 C          63.2768   89.0037   17.2405 C.3     1  UNL1        0.0338
      9 C          63.6511   86.9715   15.6657 C.3     1  UNL1        0.1071
     10 C          62.5563   79.3981   12.3197 C.3     1  UNL1        0.0311
     11 C          62.9236   80.7834   12.7625 C.ar    1  UNL1       -0.0203
     12 C          63.6839   80.9858   14.0396 C.ar    1  UNL1       -0.0040
     13 C          64.0512   82.3711   14.4823 C.ar    1  UNL1        0.0058
     14 C          63.6581   83.5540   13.6481 C.ar    1  UNL1        0.0729
     15 C          62.8978   83.3517   12.3710 C.ar    1  UNL1        0.1069
     16 C          62.5305   81.9664   11.9282 C.ar    1  UNL1        0.0168
     17 N          62.5047   84.5347   11.5367 N.ar    1  UNL1       -0.1477
     18 N          61.6435   85.6797   11.9808 N.ar    1  UNL1       -0.1447
     19 C          61.5103   86.6330   10.8304 C.ar    1  UNL1        0.1446
     20 C          62.2893   86.0772    9.6753 C.ar    1  UNL1        0.1446
     21 N          62.9039   84.7804   10.1118 N.ar    1  UNL1       -0.1447
     22 C          64.7600   87.7099   14.9764 C.3     1  UNL1        0.0487
     23 C          64.4552   88.9348   14.1661 C.ar    1  UNL1       -0.0189
     24 C          65.2325   90.1973   14.3937 C.ar    1  UNL1       -0.0041
     25 C          64.9277   91.4222   13.5834 C.ar    1  UNL1        0.0013
     26 C          63.8455   91.3847   12.5454 C.ar    1  UNL1        0.0209
     27 C          63.0682   90.1222   12.3178 C.ar    1  UNL1        0.1026
     28 C          63.3730   88.8973   13.1281 C.ar    1  UNL1        0.0167
     29 N          61.9859   90.0846   11.2797 N.ar    1  UNL1       -0.1478
     30 N          62.1842   89.8882    9.8059 N.ar    1  UNL1       -0.1447
     31 C          60.8363   89.9190    9.1487 C.ar    1  UNL1        0.1446
     32 C          59.8048   90.1344   10.2163 C.ar    1  UNL1        0.1446
     33 N          60.5153   90.2368   11.5333 N.ar    1  UNL1       -0.1447
@<TRIPOS>BOND
     1    10    11    1
     2    11    12   ar
     3    12    13   ar
     4    13    14   ar
     5    14     1    1
     6     1     2    2
     7     1     3   am
     8     3     4    1
     9     4     5    1
    10     5     6    1
    11     6     7    1
    12     7     8    1
    13     7     9    1
    14     9    22    1
    15    22    23    1
    16    23    24   ar
    17    24    25   ar
    18    25    26   ar
    19    26    27   ar
    20    27    29    1
    21    29    30   ar
    22    30    31   ar
    23    31    32   ar
    24    32    33   ar
    25    27    28   ar
    26    14    15   ar
    27    15    17    1
    28    17    18   ar
    29    18    19   ar
    30    19    20   ar
    31    20    21   ar
    32    15    16   ar
    33    16    11   ar
    34     9     3    1
    35    28    23   ar
    36    21    17   ar
    37    33    29   ar
@<TRIPOS>MOLECULE
*****
 33 37 0 0 0
SMALL
GASTEIGER

@<TRIPOS>ATOM
      1 C          62.9215   88.8305   12.1780 C.2     1  UNL1        0.2506
      2 O          62.8513   87.5296   12.9215 O.2     1  UNL1       -0.2699
      3 N          62.0844   89.0392   10.9511 N.am    1  UNL1       -0.2724
      4 C          62.1546   90.3401   10.2075 C.3     1  UNL1        0.1257
      5 C          61.3174   90.5489    8.9805 C.3     1  UNL1        0.1635
      6 O          60.4100   89.4567    8.4970 O.3     1  UNL1       -0.3527
      7 C          60.3397   88.1559    9.2405 C.3     1  UNL1        0.1337
      8 C          59.4323   87.0637    8.7569 C.3     1  UNL1        0.0338
      9 C          61.1769   87.9471   10.4675 C.3     1  UNL1        0.1071
     10 C          66.5512   93.1991   14.1122 C.3     1  UNL1        0.0311
     11 C          65.6438   92.1069   13.6286 C.ar    1  UNL1       -0.0203
     12 C          65.0702   92.1665   12.2439 C.ar    1  UNL1       -0.0040
     13 C          64.1628   91.0743   11.7604 C.ar    1  UNL1        0.0058
     14 C          63.8290   89.9226   12.6616 C.ar    1  UNL1        0.0729
     15 C          64.4025   89.8631   14.0463 C.ar    1  UNL1        0.1069
     16 C          65.3100   90.9552   14.5298 C.ar    1  UNL1        0.0168
     17 N          64.0687   88.7114   14.9475 N.ar    1  UNL1       -0.1477
     18 N          64.6217   87.3209   14.8429 N.ar    1  UNL1       -0.1447
     19 C          64.0181   86.4981   15.9423 C.ar    1  UNL1        0.1446
     20 C          63.0920   87.3800   16.7263 C.ar    1  UNL1        0.1446
     21 N          63.1233   88.7479   16.1115 N.ar    1  UNL1       -0.1447
     22 C          61.1067   86.6462   11.2110 C.3     1  UNL1        0.0487
     23 C          61.9959   85.5058   10.8127 C.ar    1  UNL1       -0.0189
     24 C          62.7316   85.5492    9.5063 C.ar    1  UNL1       -0.0041
     25 C          63.6208   84.4087    9.1080 C.ar    1  UNL1        0.0013
     26 C          63.7744   83.2249   10.0162 C.ar    1  UNL1        0.0209
     27 C          63.0387   83.1815   11.3227 C.ar    1  UNL1        0.1026
     28 C          62.1495   84.3219   11.7209 C.ar    1  UNL1        0.0167
     29 N          63.1923   81.9976   12.2309 N.ar    1  UNL1       -0.1478
     30 N          62.4932   80.6784   12.0859 N.ar    1  UNL1       -0.1447
     31 C          62.9408   79.7906   13.2090 C.ar    1  UNL1        0.1446
     32 C          63.9166   80.5611   14.0483 C.ar    1  UNL1        0.1446
     33 N          64.0720   81.9250   13.4438 N.ar    1  UNL1       -0.1447
@<TRIPOS>BOND
     1    10    11    1
     2    11    12   ar
     3    12    13   ar
     4    13    14   ar
     5    14     1    1
     6     1     2    2
     7     1     3   am
     8     3     4    1
     9     4     5    1
    10     5     6    1
    11     6     7    1
    12     7     8    1
    13     7     9    1
    14     9    22    1
    15    22    23    1
    16    23    24   ar
    17    24    25   ar
    18    25    26   ar
    19    26    27   ar
    20    27    29    1
    21    29    30   ar
    22    30    31   ar
    23    31    32   ar
    24    32    33   ar
    25    27    28   ar
    26    14    15   ar
    27    15    17    1
    28    17    18   ar
    29    18    19   ar
    30    19    20   ar
    31    20    21   ar
    32    15    16   ar
    33    16    11   ar
    34     9     3    1
    35    28    23   ar
    36    21    17   ar
    37    33    29   ar
@<TRIPOS>MOLECULE
*****
 33 37 0 0 0
SMALL
GASTEIGER

@<TRIPOS>ATOM
      1 C          63.9230   85.1762   14.0566 C.2     1  UNL1        0.2506
      2 O          64.9460   85.9109   13.2420 O.2     1  UNL1       -0.2699
      3 N          63.2614   85.8550   15.2191 N.am    1  UNL1       -0.2724
      4 C          62.2384   85.1203   16.0337 C.3     1  UNL1        0.1257
      5 C          61.5769   85.7991   17.1963 C.3     1  UNL1        0.1635
      6 O          61.9383   87.2127   17.5442 O.3     1  UNL1       -0.3527
      7 C          62.9613   87.9475   16.7297 C.3     1  UNL1        0.1337
      8 C          63.3228   89.3611   17.0776 C.3     1  UNL1        0.0338
      9 C          63.6229   87.2686   15.5671 C.3     1  UNL1        0.1071
     10 C          62.4771   79.5218   12.6647 C.3     1  UNL1        0.0311
     11 C          62.8385   80.9354   13.0127 C.ar    1  UNL1       -0.0203
     12 C          63.5654   81.2307   14.2911 C.ar    1  UNL1       -0.0040
     13 C          63.9269   82.6443   14.6391 C.ar    1  UNL1        0.0058
     14 C          63.5615   83.7626   13.7086 C.ar    1  UNL1        0.0729
     15 C          62.8346   83.4673   12.4302 C.ar    1  UNL1        0.1069
     16 C          62.4732   82.0537   12.0822 C.ar    1  UNL1        0.0168
     17 N          62.4692   84.5857   11.4996 N.ar    1  UNL1       -0.1477
     18 N          62.9731   84.7671   10.0985 N.ar    1  UNL1       -0.1447
     19 C          62.3511   86.0124    9.5397 C.ar    1  UNL1        0.1446
     20 C          61.4627   86.6007   10.5956 C.ar    1  UNL1        0.1446
     21 N          61.5357   85.7189   11.8069 N.ar    1  UNL1       -0.1447
     22 C          64.6459   88.0034   14.7525 C.3     1  UNL1        0.0487
     23 C          64.2100   89.0332   13.7528 C.ar    1  UNL1       -0.0189
     24 C          63.0321   88.7641   12.8639 C.ar    1  UNL1       -0.0041
     25 C          62.5961   89.7940   11.8642 C.ar    1  UNL1        0.0013
     26 C          63.3380   91.0929   11.7534 C.ar    1  UNL1        0.0209
     27 C          64.5159   91.3620   12.6423 C.ar    1  UNL1        0.1026
     28 C          64.9519   90.3321   13.6420 C.ar    1  UNL1        0.0167
     29 N          65.2579   92.6610   12.5316 N.ar    1  UNL1       -0.1478
     30 N          65.9288   93.3918   13.6566 N.ar    1  UNL1       -0.1447
     31 C          66.5448   94.6396   13.0966 C.ar    1  UNL1        0.1446
     32 C          66.2544   94.6800   11.6255 C.ar    1  UNL1        0.1446
     33 N          65.4591   93.4571   11.2763 N.ar    1  UNL1       -0.1447
@<TRIPOS>BOND
     1    10    11    1
     2    11    12   ar
     3    12    13   ar
     4    13    14   ar
     5    14     1    1
     6     1     2    2
     7     1     3   am
     8     3     4    1
     9     4     5    1
    10     5     6    1
    11     6     7    1
    12     7     8    1
    13     7     9    1
    14     9    22    1
    15    22    23    1
    16    23    24   ar
    17    24    25   ar
    18    25    26   ar
    19    26    27   ar
    20    27    29    1
    21    29    30   ar
    22    30    31   ar
    23    31    32   ar
    24    32    33   ar
    25    27    28   ar
    26    14    15   ar
    27    15    17    1
    28    17    18   ar
    29    18    19   ar
    30    19    20   ar
    31    20    21   ar
    32    15    16   ar
    33    16    11   ar
    34     9     3    1
    35    28    23   ar
    36    21    17   ar
    37    33    29   ar
@<TRIPOS>MOLECULE
*****
 33 37 0 0 0
SMALL
GASTEIGER

@<TRIPOS>ATOM
      1 C          63.3075   86.8058   13.1735 C.2     1  UNL1        0.2506
      2 O          63.6870   87.5581   14.4144 O.2     1  UNL1       -0.2699
      3 N          62.8471   87.5510   11.9559 N.am    1  UNL1       -0.2724
      4 C          62.4676   86.7987   10.7149 C.3     1  UNL1        0.1257
      5 C          62.0071   87.5439    9.4973 C.3     1  UNL1        0.1635
      6 O          61.9261   89.0416    9.5207 O.3     1  UNL1       -0.3527
      7 C          62.3055   89.7939   10.7616 C.3     1  UNL1        0.1337
      8 C          62.2245   91.2915   10.7850 C.3     1  UNL1        0.0338
      9 C          62.7660   89.0487   11.9793 C.3     1  UNL1        0.1071
     10 C          63.6317   80.8153   13.0800 C.3     1  UNL1        0.0311
     11 C          63.5506   82.3129   13.1034 C.ar    1  UNL1       -0.0203
     12 C          63.7472   83.0944   11.8383 C.ar    1  UNL1       -0.0040
     13 C          63.6662   84.5921   11.8617 C.ar    1  UNL1        0.0058
     14 C          63.3886   85.3081   13.1501 C.ar    1  UNL1        0.0729
     15 C          63.1920   84.5266   14.4152 C.ar    1  UNL1        0.1069
     16 C          63.2730   83.0290   14.3918 C.ar    1  UNL1        0.0168
     17 N          62.9143   85.2426   15.7037 N.ar    1  UNL1       -0.1477
     18 N          63.9436   85.7881   16.6488 N.ar    1  UNL1       -0.1447
     19 C          63.2241   86.4215   17.8025 C.ar    1  UNL1        0.1446
     20 C          61.7501   86.2675   17.5705 C.ar    1  UNL1        0.1446
     21 N          61.5587   85.5390   16.2734 N.ar    1  UNL1       -0.1447
     22 C          63.1454   89.8010   13.2202 C.3     1  UNL1        0.0487
     23 C          64.4325   90.5700   13.2670 C.ar    1  UNL1       -0.0189
     24 C          65.3626   90.4054   14.4322 C.ar    1  UNL1       -0.0041
     25 C          66.6496   91.1744   14.4791 C.ar    1  UNL1        0.0013
     26 C          67.0065   92.1080   13.3607 C.ar    1  UNL1        0.0209
     27 C          66.0765   92.2727   12.1954 C.ar    1  UNL1        0.1026
     28 C          64.7894   91.5037   12.1486 C.ar    1  UNL1        0.0167
     29 N          66.4334   93.2063   11.0770 N.ar    1  UNL1       -0.1478
     30 N          65.7135   94.4737   10.7228 N.ar    1  UNL1       -0.1447
     31 C          66.4081   95.0872    9.5432 C.ar    1  UNL1        0.1446
     32 C          67.5572   94.1989    9.1684 C.ar    1  UNL1        0.1446
     33 N          67.5728   93.0365   10.1163 N.ar    1  UNL1       -0.1447
@<TRIPOS>BOND
     1    10    11    1
     2    11    12   ar
     3    12    13   ar
     4    13    14   ar
     5    14     1    1
     6     1     2    2
     7     1     3   am
     8     3     4    1
     9     4     5    1
    10     5     6    1
    11     6     7    1
    12     7     8    1
    13     7     9    1
    14     9    22    1
    15    22    23    1
    16    23    24   ar
    17    24    25   ar
    18    25    26   ar
    19    26    27   ar
    20    27    29    1
    21    29    30   ar
    22    30    31   ar
    23    31    32   ar
    24    32    33   ar
    25    27    28   ar
    26    14    15   ar
    27    15    17    1
    28    17    18   ar
    29    18    19   ar
    30    19    20   ar
    31    20    21   ar
    32    15    16   ar
    33    16    11   ar
    34     9     3    1
    35    28    23   ar
    36    21    17   ar
    37    33    29   ar
