@<TRIPOS>MOLECULE
*****
 31 35 0 0 0
SMALL
GASTEIGER

@<TRIPOS>ATOM
      1 C          63.0164   90.4438   12.2464 C.3     1  UNL1        0.3201
      2 C          65.8789   92.2970   12.4396 C.3     1  UNL1        0.1489
      3 C          66.4174   92.4613   13.8300 C.3     1  UNL1        0.0672
      4 C          65.7026   91.8341   14.9900 C.3     1  UNL1        0.1543
      5 O          64.4494   91.0426   14.7597 O.3     1  UNL1       -0.2916
      6 P          63.9110   90.8783   13.3693 P.3     1  UNL1        0.3872
      7 O          62.8855   90.1002   14.1395 O.2     1  UNL1       -0.2539
      8 O          64.6258   91.5056   12.2093 O.3     1  UNL1       -0.2896
      9 C          66.9792   94.9552    9.7058 C.ar    1  UNL1        0.1385
     10 C          68.0233   94.1787    8.9595 C.ar    1  UNL1        0.0369
     11 C          68.3526   92.7750    9.3733 C.ar    1  UNL1        0.0029
     12 C          67.6379   92.1477   10.5333 C.ar    1  UNL1       -0.0017
     13 C          66.5937   92.9242   11.2796 C.ar    1  UNL1        0.0081
     14 C          66.2644   94.3279   10.8658 C.ar    1  UNL1        0.0350
     15 C          67.0560   96.8560    7.9363 C.3     1  UNL1        0.2525
     16 O          66.6499   96.3589    9.2921 O.3     1  UNL1       -0.4714
     17 O          62.1008   89.2696   12.4283 O.3     1  UNL1       -0.4630
     18 C          61.6839   88.4528   11.2413 C.ar    1  UNL1        0.1402
     19 C          60.9180   89.0932   10.1218 C.ar    1  UNL1        0.0324
     20 C          60.5010   88.2764    8.9349 C.ar    1  UNL1       -0.0231
     21 C          59.7352   88.9168    7.8153 C.3     1  UNL1        0.0308
     22 C          60.8499   86.8191    8.8673 C.ar    1  UNL1       -0.0292
     23 C          60.4330   86.0023    7.6804 C.3     1  UNL1        0.0304
     24 C          61.6158   86.1787    9.9868 C.ar    1  UNL1       -0.0171
     25 C          62.0328   86.9955   11.1739 C.ar    1  UNL1        0.0479
     26 C          62.7738   86.0960   12.1183 C.ar    1  UNL1        0.0868
     27 N          63.4894   86.0450   13.4356 N.ar    1  UNL1       -0.2365
     28 C          63.9726   84.6408   13.6464 C.ar    1  UNL1        0.1342
     29 S          63.5557   83.8239   12.4595 S.2     1  UNL1       -0.0685
     30 C          62.8147   84.7233   11.5150 C.ar    1  UNL1        0.0308
     31 C          62.0991   84.7743   10.1977 C.3     1  UNL1        0.0606
@<TRIPOS>BOND
     1    15    16    1
     2    16     9    1
     3     9    10   ar
     4    10    11   ar
     5    11    12   ar
     6    12    13   ar
     7     2    13    1
     8     2     3    1
     9     3     4    1
    10     4     5    1
    11     5     6    1
    12     6     7    2
    13     6     1    1
    14     1    17    1
    15    17    18    1
    16    18    19   ar
    17    19    20   ar
    18    20    21    1
    19    20    22   ar
    20    22    23    1
    21    22    24   ar
    22    24    25   ar
    23    25    26    1
    24    26    27   ar
    25    27    28   ar
    26    28    29   ar
    27    29    30   ar
    28    30    31    1
    29     6     8    1
    30    13    14   ar
    31    14     9   ar
    32     8     2    1
    33    25    18   ar
    34    30    26   ar
    35    31    24    1
@<TRIPOS>MOLECULE
*****
 31 35 0 0 0
SMALL
GASTEIGER

@<TRIPOS>ATOM
      1 C          64.2147   87.7757   14.9057 C.3     1  UNL1        0.3201
      2 C          63.1025   84.9515   13.3398 C.3     1  UNL1        0.1489
      3 C          62.4607   83.9492   14.2529 C.3     1  UNL1        0.0672
      4 C          62.3523   84.2343   15.7216 C.3     1  UNL1        0.1543
      5 O          62.8858   85.5214   16.2771 O.3     1  UNL1       -0.2916
      6 P          63.5276   86.5236   15.3640 P.3     1  UNL1        0.3872
      7 O          63.6579   87.2434   16.6736 O.2     1  UNL1       -0.2539
      8 O          63.6359   86.2385   13.8953 O.3     1  UNL1       -0.2896
      9 C          62.6578   85.2923    9.4109 C.ar    1  UNL1        0.1385
     10 C          63.4275   84.0965    8.9337 C.ar    1  UNL1        0.0369
     11 C          64.0888   83.1857    9.9252 C.ar    1  UNL1        0.0029
     12 C          63.9805   83.4706   11.3939 C.ar    1  UNL1       -0.0017
     13 C          63.2108   84.6664   11.8711 C.ar    1  UNL1        0.0081
     14 C          62.5495   85.5772   10.8796 C.ar    1  UNL1        0.0350
     15 C          60.5844   85.9415    7.9863 C.3     1  UNL1        0.2525
     16 O          61.9965   86.2031    8.4194 O.3     1  UNL1       -0.4714
     17 O          63.4108   89.0075   14.6113 O.3     1  UNL1       -0.4630
     18 C          63.9412   90.0399   13.6611 C.ar    1  UNL1        0.1402
     19 C          65.1243   90.8772   14.0473 C.ar    1  UNL1        0.0324
     20 C          65.6547   91.9096   13.0972 C.ar    1  UNL1       -0.0231
     21 C          66.8378   92.7470   13.4834 C.3     1  UNL1        0.0308
     22 C          65.0021   92.1047   11.7607 C.ar    1  UNL1       -0.0292
     23 C          65.5324   93.1370   10.8106 C.3     1  UNL1        0.0304
     24 C          63.8190   91.2673   11.3745 C.ar    1  UNL1       -0.0171
     25 C          63.2885   90.2349   12.3247 C.ar    1  UNL1        0.0479
     26 C          62.1166   89.5631   11.6725 C.ar    1  UNL1        0.0868
     27 N          61.0646   88.5099   11.8567 N.ar    1  UNL1       -0.2365
     28 C          60.2205   88.4763   10.6171 C.ar    1  UNL1        0.1342
     29 S          60.7509   89.5086    9.6669 S.2     1  UNL1       -0.0685
     30 C          61.9228   90.1804   10.3192 C.ar    1  UNL1        0.0308
     31 C          62.9748   91.2336   10.1350 C.3     1  UNL1        0.0606
@<TRIPOS>BOND
     1    15    16    1
     2    16     9    1
     3     9    10   ar
     4    10    11   ar
     5    11    12   ar
     6    12    13   ar
     7     2    13    1
     8     2     3    1
     9     3     4    1
    10     4     5    1
    11     5     6    1
    12     6     7    2
    13     6     1    1
    14     1    17    1
    15    17    18    1
    16    18    19   ar
    17    19    20   ar
    18    20    21    1
    19    20    22   ar
    20    22    23    1
    21    22    24   ar
    22    24    25   ar
    23    25    26    1
    24    26    27   ar
    25    27    28   ar
    26    28    29   ar
    27    29    30   ar
    28    30    31    1
    29     6     8    1
    30    13    14   ar
    31    14     9   ar
    32     8     2    1
    33    25    18   ar
    34    30    26   ar
    35    31    24    1
@<TRIPOS>MOLECULE
*****
 31 35 0 0 0
SMALL
GASTEIGER

@<TRIPOS>ATOM
      1 C          63.1249   90.3030   12.2537 C.3     1  UNL1        0.3201
      2 C          65.6213   92.5832   12.7376 C.3     1  UNL1        0.1489
      3 C          66.1291   92.6554   14.1472 C.3     1  UNL1        0.0672
      4 C          65.5398   91.7677   15.2030 C.3     1  UNL1        0.1543
      5 O          64.4428   90.8078   14.8492 O.3     1  UNL1       -0.2916
      6 P          63.9350   90.7357   13.4396 P.3     1  UNL1        0.3872
      7 O          63.0644   89.6977   14.0837 O.2     1  UNL1       -0.2539
      8 O          64.5243   91.6234   12.3839 O.3     1  UNL1       -0.2896
      9 C          67.5001   93.7557    9.4444 C.ar    1  UNL1        0.1385
     10 C          67.3892   95.2463    9.5702 C.ar    1  UNL1        0.0369
     11 C          66.6889   95.8492   10.7518 C.ar    1  UNL1        0.0029
     12 C          66.0996   94.9616   11.8076 C.ar    1  UNL1       -0.0017
     13 C          66.2106   93.4710   11.6818 C.ar    1  UNL1        0.0081
     14 C          66.9108   92.8681   10.5002 C.ar    1  UNL1        0.0350
     15 C          69.0428   91.9240    8.4369 C.3     1  UNL1        0.2525
     16 O          68.2003   93.1528    8.2628 O.3     1  UNL1       -0.4714
     17 O          62.0557   89.2633   12.4147 O.3     1  UNL1       -0.4630
     18 C          61.6368   88.4301   11.2399 C.ar    1  UNL1        0.1402
     19 C          60.8461   89.0488   10.1255 C.ar    1  UNL1        0.0324
     20 C          60.4271   88.2157    8.9506 C.ar    1  UNL1       -0.0231
     21 C          59.6364   88.8344    7.8362 C.3     1  UNL1        0.0308
     22 C          60.7988   86.7637    8.8902 C.ar    1  UNL1       -0.0292
     23 C          60.3799   85.9305    7.7154 C.3     1  UNL1        0.0304
     24 C          61.5895   86.1450   10.0046 C.ar    1  UNL1       -0.0171
     25 C          62.0085   86.9781   11.1795 C.ar    1  UNL1        0.0479
     26 C          62.7763   86.0986   12.1213 C.ar    1  UNL1        0.0868
     27 N          63.5097   86.0700   13.4294 N.ar    1  UNL1       -0.2365
     28 C          64.0185   84.6755   13.6451 C.ar    1  UNL1        0.1342
     29 S          63.5996   83.8423   12.4703 S.2     1  UNL1       -0.0685
     30 C          62.8318   84.7218   11.5285 C.ar    1  UNL1        0.0308
     31 C          62.0984   84.7504   10.2203 C.3     1  UNL1        0.0606
@<TRIPOS>BOND
     1    15    16    1
     2    16     9    1
     3     9    10   ar
     4    10    11   ar
     5    11    12   ar
     6    12    13   ar
     7     2    13    1
     8     2     3    1
     9     3     4    1
    10     4     5    1
    11     5     6    1
    12     6     7    2
    13     6     1    1
    14     1    17    1
    15    17    18    1
    16    18    19   ar
    17    19    20   ar
    18    20    21    1
    19    20    22   ar
    20    22    23    1
    21    22    24   ar
    22    24    25   ar
    23    25    26    1
    24    26    27   ar
    25    27    28   ar
    26    28    29   ar
    27    29    30   ar
    28    30    31    1
    29     6     8    1
    30    13    14   ar
    31    14     9   ar
    32     8     2    1
    33    25    18   ar
    34    30    26   ar
    35    31    24    1
@<TRIPOS>MOLECULE
*****
 31 35 0 0 0
SMALL
GASTEIGER

@<TRIPOS>ATOM
      1 C          63.9179   86.6978   14.1571 C.3     1  UNL1        0.3201
      2 C          63.9965   90.1123   14.1641 C.3     1  UNL1        0.1489
      3 C          63.6742   90.7363   15.4896 C.3     1  UNL1        0.0672
      4 C          63.3537   89.8673   16.6695 C.3     1  UNL1        0.1543
      5 O          63.3555   88.3744   16.5239 O.3     1  UNL1       -0.2916
      6 P          63.6779   87.7505   15.1984 P.3     1  UNL1        0.3872
      7 O          63.4407   86.5158   16.0167 O.2     1  UNL1       -0.2539
      8 O          63.9984   88.6195   14.0186 O.3     1  UNL1       -0.2896
      9 C          65.6460   92.9530   11.9370 C.ar    1  UNL1        0.1385
     10 C          64.9581   92.7195   10.6246 C.ar    1  UNL1        0.0369
     11 C          63.9496   91.6170   10.4921 C.ar    1  UNL1        0.0029
     12 C          63.6291   90.7480   11.6719 C.ar    1  UNL1       -0.0017
     13 C          64.3170   90.9814   12.9842 C.ar    1  UNL1        0.0081
     14 C          65.3255   92.0839   13.1167 C.ar    1  UNL1        0.0350
     15 C          66.3990   95.3867   11.4271 C.3     1  UNL1        0.2525
     16 O          66.6545   94.0554   12.0695 O.3     1  UNL1       -0.4714
     17 O          62.7562   85.9968   13.5176 O.3     1  UNL1       -0.4630
     18 C          62.7960   85.6587   12.0568 C.ar    1  UNL1        0.1402
     19 C          63.4855   84.4093   11.5946 C.ar    1  UNL1        0.0324
     20 C          63.5254   84.0711   10.1338 C.ar    1  UNL1       -0.0231
     21 C          64.2149   82.8218    9.6717 C.3     1  UNL1        0.0308
     22 C          62.8756   84.9824    9.1350 C.ar    1  UNL1       -0.0292
     23 C          62.9154   84.6443    7.6743 C.3     1  UNL1        0.0304
     24 C          62.1861   86.2317    9.5972 C.ar    1  UNL1       -0.0171
     25 C          62.1462   86.5699   11.0581 C.ar    1  UNL1        0.0479
     26 C          61.3985   87.8608   11.2148 C.ar    1  UNL1        0.0868
     27 N          60.9118   88.8676   12.2146 N.ar    1  UNL1       -0.2365
     28 C          60.1887   89.9494   11.4685 C.ar    1  UNL1        0.1342
     29 S          60.2285   89.6113   10.0077 S.2     1  UNL1       -0.0685
     30 C          60.9762   88.3205    9.8509 C.ar    1  UNL1        0.0308
     31 C          61.4629   87.3137    8.8511 C.3     1  UNL1        0.0606
@<TRIPOS>BOND
     1    15    16    1
     2    16     9    1
     3     9    10   ar
     4    10    11   ar
     5    11    12   ar
     6    12    13   ar
     7     2    13    1
     8     2     3    1
     9     3     4    1
    10     4     5    1
    11     5     6    1
    12     6     7    2
    13     6     1    1
    14     1    17    1
    15    17    18    1
    16    18    19   ar
    17    19    20   ar
    18    20    21    1
    19    20    22   ar
    20    22    23    1
    21    22    24   ar
    22    24    25   ar
    23    25    26    1
    24    26    27   ar
    25    27    28   ar
    26    28    29   ar
    27    29    30   ar
    28    30    31    1
    29     6     8    1
    30    13    14   ar
    31    14     9   ar
    32     8     2    1
    33    25    18   ar
    34    30    26   ar
    35    31    24    1
@<TRIPOS>MOLECULE
*****
 31 35 0 0 0
SMALL
GASTEIGER

@<TRIPOS>ATOM
      1 C          61.6070   89.5792   11.6015 C.3     1  UNL1        0.3201
      2 C          61.7406   86.5438   10.0413 C.3     1  UNL1        0.1489
      3 C          60.9513   86.4670    8.7679 C.3     1  UNL1        0.0672
      4 C          60.1913   87.6660    8.2832 C.3     1  UNL1        0.1543
      5 O          60.2205   88.9417    9.0718 O.3     1  UNL1       -0.2916
      6 P          61.0097   89.0184   10.3451 P.3     1  UNL1        0.3872
      7 O          60.4571   90.4121   10.2967 O.2     1  UNL1       -0.2539
      8 O          61.7697   87.8195   10.8298 O.3     1  UNL1       -0.2896
      9 C          63.2333   83.7782   12.4647 C.ar    1  UNL1        0.1385
     10 C          64.0205   82.9470   11.4955 C.ar    1  UNL1        0.0369
     11 C          64.0478   83.3148   10.0415 C.ar    1  UNL1        0.0029
     12 C          63.2878   84.5137    9.5567 C.ar    1  UNL1       -0.0017
     13 C          62.5006   85.3449   10.5260 C.ar    1  UNL1        0.0081
     14 C          62.4733   84.9771   11.9799 C.ar    1  UNL1        0.0350
     15 C          62.2035   82.4146   14.4217 C.3     1  UNL1        0.2525
     16 O          63.2061   83.4105   13.9187 O.3     1  UNL1       -0.4714
     17 O          63.0216   90.0782   11.6017 O.3     1  UNL1       -0.4630
     18 C          63.6350   90.5935   12.8699 C.ar    1  UNL1        0.1402
     19 C          63.2184   90.0195   14.1917 C.ar    1  UNL1        0.0324
     20 C          63.8317   90.5347   15.4599 C.ar    1  UNL1       -0.0231
     21 C          63.4152   89.9608   16.7816 C.3     1  UNL1        0.0308
     22 C          64.8617   91.6240   15.4064 C.ar    1  UNL1       -0.0292
     23 C          65.4750   92.1392   16.6745 C.3     1  UNL1        0.0304
     24 C          65.2782   92.1979   14.0846 C.ar    1  UNL1       -0.0171
     25 C          64.6649   91.6827   12.8163 C.ar    1  UNL1        0.0479
     26 C          65.2696   92.4367   11.6693 C.ar    1  UNL1        0.0868
     27 N          65.2642   92.5842   10.1766 N.ar    1  UNL1       -0.2365
     28 C          66.2480   93.6567    9.8133 C.ar    1  UNL1        0.1342
     29 S          66.8614   94.1720   11.0815 S.2     1  UNL1       -0.0685
     30 C          66.2567   93.4180   12.2286 C.ar    1  UNL1        0.0308
     31 C          66.2620   93.2704   13.7213 C.3     1  UNL1        0.0606
@<TRIPOS>BOND
     1    15    16    1
     2    16     9    1
     3     9    10   ar
     4    10    11   ar
     5    11    12   ar
     6    12    13   ar
     7     2    13    1
     8     2     3    1
     9     3     4    1
    10     4     5    1
    11     5     6    1
    12     6     7    2
    13     6     1    1
    14     1    17    1
    15    17    18    1
    16    18    19   ar
    17    19    20   ar
    18    20    21    1
    19    20    22   ar
    20    22    23    1
    21    22    24   ar
    22    24    25   ar
    23    25    26    1
    24    26    27   ar
    25    27    28   ar
    26    28    29   ar
    27    29    30   ar
    28    30    31    1
    29     6     8    1
    30    13    14   ar
    31    14     9   ar
    32     8     2    1
    33    25    18   ar
    34    30    26   ar
    35    31    24    1
@<TRIPOS>MOLECULE
*****
 31 35 0 0 0
SMALL
GASTEIGER

@<TRIPOS>ATOM
      1 C          61.9046   89.3266   11.2604 C.3     1  UNL1        0.3201
      2 C          61.8801   86.1361   10.0414 C.3     1  UNL1        0.1489
      3 C          60.9512   85.9231    8.8830 C.3     1  UNL1        0.0672
      4 C          60.1325   87.0652    8.3583 C.3     1  UNL1        0.1543
      5 O          60.2428   88.4204    8.9920 O.3     1  UNL1       -0.2916
      6 P          61.1717   88.6333   10.1503 P.3     1  UNL1        0.3872
      7 O          60.6075   90.0163   10.0111 O.2     1  UNL1       -0.2539
      8 O          61.9903   87.4912   10.6750 O.3     1  UNL1       -0.2896
      9 C          63.5940   83.6002   12.5676 C.ar    1  UNL1        0.1385
     10 C          64.3360   82.7097   11.6155 C.ar    1  UNL1        0.0369
     11 C          64.2594   82.9613   10.1388 C.ar    1  UNL1        0.0029
     12 C          63.4408   84.1034    9.6140 C.ar    1  UNL1       -0.0017
     13 C          62.6988   84.9940   10.5661 C.ar    1  UNL1        0.0081
     14 C          62.7754   84.7423   12.0428 C.ar    1  UNL1        0.0350
     15 C          62.4166   83.3250   14.8672 C.3     1  UNL1        0.2525
     16 O          63.6706   83.3485   14.0444 O.3     1  UNL1       -0.4714
     17 O          62.2069   90.7923   11.1588 O.3     1  UNL1       -0.4630
     18 C          63.5403   91.3157   11.6040 C.ar    1  UNL1        0.1402
     19 C          64.4286   92.0310   10.6297 C.ar    1  UNL1        0.0324
     20 C          65.7619   92.5544   11.0748 C.ar    1  UNL1       -0.0231
     21 C          66.6502   93.2697   10.1005 C.3     1  UNL1        0.0308
     22 C          66.2071   92.3625   12.4943 C.ar    1  UNL1       -0.0292
     23 C          67.5404   92.8859   12.9395 C.3     1  UNL1        0.0304
     24 C          65.3188   91.6472   13.4687 C.ar    1  UNL1       -0.0171
     25 C          63.9854   91.1238   13.0235 C.ar    1  UNL1        0.0479
     26 C          63.3301   90.4639   14.2004 C.ar    1  UNL1        0.0868
     27 N          62.1010   89.7326   14.6526 N.ar    1  UNL1       -0.2365
     28 C          62.2697   89.3962   16.1046 C.ar    1  UNL1        0.1342
     29 S          63.6031   89.9196   16.5498 S.2     1  UNL1       -0.0685
     30 C          64.2584   90.5795   15.3729 C.ar    1  UNL1        0.0308
     31 C          65.4875   91.3108   14.9207 C.3     1  UNL1        0.0606
@<TRIPOS>BOND
     1    15    16    1
     2    16     9    1
     3     9    10   ar
     4    10    11   ar
     5    11    12   ar
     6    12    13   ar
     7     2    13    1
     8     2     3    1
     9     3     4    1
    10     4     5    1
    11     5     6    1
    12     6     7    2
    13     6     1    1
    14     1    17    1
    15    17    18    1
    16    18    19   ar
    17    19    20   ar
    18    20    21    1
    19    20    22   ar
    20    22    23    1
    21    22    24   ar
    22    24    25   ar
    23    25    26    1
    24    26    27   ar
    25    27    28   ar
    26    28    29   ar
    27    29    30   ar
    28    30    31    1
    29     6     8    1
    30    13    14   ar
    31    14     9   ar
    32     8     2    1
    33    25    18   ar
    34    30    26   ar
    35    31    24    1
@<TRIPOS>MOLECULE
*****
 31 35 0 0 0
SMALL
GASTEIGER

@<TRIPOS>ATOM
      1 C          64.1469   89.9518   13.2136 C.3     1  UNL1        0.3201
      2 C          66.2331   92.6239   12.7964 C.3     1  UNL1        0.1489
      3 C          66.6655   93.2773   14.0755 C.3     1  UNL1        0.0672
      4 C          66.1802   92.7447   15.3911 C.3     1  UNL1        0.1543
      5 O          65.2626   91.5586   15.4277 O.3     1  UNL1       -0.2916
      6 P          64.8303   90.9052   14.1485 P.3     1  UNL1        0.3872
      7 O          64.1077   90.0415   15.1395 O.2     1  UNL1       -0.2539
      8 O          65.3155   91.4379   12.8329 O.3     1  UNL1       -0.2896
      9 C          66.8400   95.0808    9.7394 C.ar    1  UNL1        0.1385
     10 C          67.6888   94.2219    8.8496 C.ar    1  UNL1        0.0369
     11 C          68.0523   92.8303    9.2754 C.ar    1  UNL1        0.0029
     12 C          67.5671   92.2975   10.5909 C.ar    1  UNL1       -0.0017
     13 C          66.7183   93.1565   11.4808 C.ar    1  UNL1        0.0081
     14 C          66.3548   94.5481   11.0550 C.ar    1  UNL1        0.0350
     15 C          66.3277   96.7962    7.8566 C.3     1  UNL1        0.2525
     16 O          66.4765   96.4724    9.3137 O.3     1  UNL1       -0.4714
     17 O          63.2137   88.9098   13.7550 O.3     1  UNL1       -0.4630
     18 C          63.2077   87.5299   13.1668 C.ar    1  UNL1        0.1402
     19 C          63.9378   86.4168   13.8579 C.ar    1  UNL1        0.0324
     20 C          63.9319   85.0370   13.2698 C.ar    1  UNL1       -0.0231
     21 C          64.6620   83.9238   13.9609 C.3     1  UNL1        0.0308
     22 C          63.1957   84.7702   11.9903 C.ar    1  UNL1       -0.0292
     23 C          63.1897   83.3905   11.4021 C.3     1  UNL1        0.0304
     24 C          62.4655   85.8834   11.2991 C.ar    1  UNL1       -0.0171
     25 C          62.4715   87.2633   11.8873 C.ar    1  UNL1        0.0479
     26 C          61.6682   88.1545   10.9871 C.ar    1  UNL1        0.0868
     27 N          61.1755   89.5580   10.7943 N.ar    1  UNL1       -0.2365
     28 C          60.3685   89.5964    9.5304 C.ar    1  UNL1        0.1342
     29 S          60.3624   88.2166    8.9422 S.2     1  UNL1       -0.0685
     30 C          61.1657   87.3254    9.8424 C.ar    1  UNL1        0.0308
     31 C          61.6585   85.9218   10.0353 C.3     1  UNL1        0.0606
@<TRIPOS>BOND
     1    15    16    1
     2    16     9    1
     3     9    10   ar
     4    10    11   ar
     5    11    12   ar
     6    12    13   ar
     7     2    13    1
     8     2     3    1
     9     3     4    1
    10     4     5    1
    11     5     6    1
    12     6     7    2
    13     6     1    1
    14     1    17    1
    15    17    18    1
    16    18    19   ar
    17    19    20   ar
    18    20    21    1
    19    20    22   ar
    20    22    23    1
    21    22    24   ar
    22    24    25   ar
    23    25    26    1
    24    26    27   ar
    25    27    28   ar
    26    28    29   ar
    27    29    30   ar
    28    30    31    1
    29     6     8    1
    30    13    14   ar
    31    14     9   ar
    32     8     2    1
    33    25    18   ar
    34    30    26   ar
    35    31    24    1
@<TRIPOS>MOLECULE
*****
 31 35 0 0 0
SMALL
GASTEIGER

@<TRIPOS>ATOM
      1 C          62.5440   90.5786   11.6864 C.3     1  UNL1        0.3201
      2 C          64.2539   89.6835   14.5044 C.3     1  UNL1        0.1489
      3 C          65.5207   90.4542   14.7309 C.3     1  UNL1        0.0672
      4 C          65.9371   91.5157   13.7564 C.3     1  UNL1        0.1543
      5 O          65.0868   91.8065   12.5554 O.3     1  UNL1       -0.2916
      6 P          63.8201   91.0358   12.3289 P.3     1  UNL1        0.3872
      7 O          63.7934   91.9386   11.1312 O.2     1  UNL1       -0.2539
      8 O          63.4036   89.9742   13.3034 O.3     1  UNL1       -0.2896
      9 C          63.7073   86.1177   16.1587 C.ar    1  UNL1        0.1385
     10 C          63.0046   86.4988   17.4280 C.ar    1  UNL1        0.0369
     11 C          62.7184   87.9414   17.7227 C.ar    1  UNL1        0.0029
     12 C          63.1348   89.0030   16.7482 C.ar    1  UNL1       -0.0017
     13 C          63.8375   88.6219   15.4789 C.ar    1  UNL1        0.0081
     14 C          64.1237   87.1793   15.1842 C.ar    1  UNL1        0.0350
     15 C          62.8628   83.6988   15.7275 C.3     1  UNL1        0.2525
     16 O          63.9935   84.6751   15.8639 O.3     1  UNL1       -0.4714
     17 O          62.0826   89.1619   11.8600 O.3     1  UNL1       -0.4630
     18 C          61.5287   88.4048   10.6895 C.ar    1  UNL1        0.1402
     19 C          60.7001   89.1155    9.6608 C.ar    1  UNL1        0.0324
     20 C          60.1462   88.3585    8.4904 C.ar    1  UNL1       -0.0231
     21 C          59.3175   89.0691    7.4616 C.3     1  UNL1        0.0308
     22 C          60.4209   86.8906    8.3486 C.ar    1  UNL1       -0.0292
     23 C          59.8670   86.1336    7.1782 C.3     1  UNL1        0.0304
     24 C          61.2495   86.1799    9.3773 C.ar    1  UNL1       -0.0171
     25 C          61.8034   86.9370   10.5478 C.ar    1  UNL1        0.0479
     26 C          62.5805   85.9748   11.3966 C.ar    1  UNL1        0.0868
     27 N          63.4030   85.8480   12.6445 N.ar    1  UNL1       -0.2365
     28 C          63.8377   84.4179   12.7698 C.ar    1  UNL1        0.1342
     29 S          63.2838   83.6607   11.5993 S.2     1  UNL1       -0.0685
     30 C          62.5068   84.6230   10.7506 C.ar    1  UNL1        0.0308
     31 C          61.6842   84.7497    9.5027 C.3     1  UNL1        0.0606
@<TRIPOS>BOND
     1    15    16    1
     2    16     9    1
     3     9    10   ar
     4    10    11   ar
     5    11    12   ar
     6    12    13   ar
     7     2    13    1
     8     2     3    1
     9     3     4    1
    10     4     5    1
    11     5     6    1
    12     6     7    2
    13     6     1    1
    14     1    17    1
    15    17    18    1
    16    18    19   ar
    17    19    20   ar
    18    20    21    1
    19    20    22   ar
    20    22    23    1
    21    22    24   ar
    22    24    25   ar
    23    25    26    1
    24    26    27   ar
    25    27    28   ar
    26    28    29   ar
    27    29    30   ar
    28    30    31    1
    29     6     8    1
    30    13    14   ar
    31    14     9   ar
    32     8     2    1
    33    25    18   ar
    34    30    26   ar
    35    31    24    1
@<TRIPOS>MOLECULE
*****
 31 35 0 0 0
SMALL
GASTEIGER

@<TRIPOS>ATOM
      1 C          62.6845   89.8653   11.4769 C.3     1  UNL1        0.3201
      2 C          64.0026   89.5065   14.6074 C.3     1  UNL1        0.1489
      3 C          64.9603   90.5908   15.0039 C.3     1  UNL1        0.0672
      4 C          65.2645   91.7082   14.0506 C.3     1  UNL1        0.1543
      5 O          64.6111   91.7413   12.7008 O.3     1  UNL1       -0.2916
      6 P          63.6534   90.6570   12.3043 P.3     1  UNL1        0.3872
      7 O          63.6212   91.4995   11.0636 O.2     1  UNL1       -0.2539
      8 O          63.3492   89.5396   13.2577 O.3     1  UNL1       -0.2896
      9 C          63.6845   85.8527   16.1236 C.ar    1  UNL1        0.1385
     10 C          63.0899   86.1542   17.4674 C.ar    1  UNL1        0.0369
     11 C          62.7996   87.5731   17.8578 C.ar    1  UNL1        0.0029
     12 C          63.1038   88.6906   16.9045 C.ar    1  UNL1       -0.0017
     13 C          63.6983   88.3891   15.5608 C.ar    1  UNL1        0.0081
     14 C          63.9886   86.9702   15.1704 C.ar    1  UNL1        0.0350
     15 C          62.8463   83.4948   15.4255 C.3     1  UNL1        0.2525
     16 O          63.9748   84.4338   15.7332 O.3     1  UNL1       -0.4714
     17 O          62.0134   88.6568   12.0594 O.3     1  UNL1       -0.4630
     18 C          62.2675   87.3009   11.4705 C.ar    1  UNL1        0.1402
     19 C          63.1211   86.3113   12.2068 C.ar    1  UNL1        0.0324
     20 C          63.3752   84.9554   11.6179 C.ar    1  UNL1       -0.0231
     21 C          64.2288   83.9659   12.3542 C.3     1  UNL1        0.0308
     22 C          62.7757   84.5890   10.2926 C.ar    1  UNL1       -0.0292
     23 C          63.0298   83.2331    9.7037 C.3     1  UNL1        0.0304
     24 C          61.9222   85.5785    9.5563 C.ar    1  UNL1       -0.0171
     25 C          61.6680   86.9345   10.1452 C.ar    1  UNL1        0.0479
     26 C          60.7916   87.6957    9.1952 C.ar    1  UNL1        0.0868
     27 N          60.0929   89.0041    8.9720 N.ar    1  UNL1       -0.2365
     28 C          59.3736   88.9272    7.6580 C.ar    1  UNL1        0.1342
     29 S          59.6277   87.5713    7.0691 S.2     1  UNL1       -0.0685
     30 C          60.5041   86.8101    8.0191 C.ar    1  UNL1        0.0308
     31 C          61.2028   85.5017    8.2422 C.3     1  UNL1        0.0606
@<TRIPOS>BOND
     1    15    16    1
     2    16     9    1
     3     9    10   ar
     4    10    11   ar
     5    11    12   ar
     6    12    13   ar
     7     2    13    1
     8     2     3    1
     9     3     4    1
    10     4     5    1
    11     5     6    1
    12     6     7    2
    13     6     1    1
    14     1    17    1
    15    17    18    1
    16    18    19   ar
    17    19    20   ar
    18    20    21    1
    19    20    22   ar
    20    22    23    1
    21    22    24   ar
    22    24    25   ar
    23    25    26    1
    24    26    27   ar
    25    27    28   ar
    26    28    29   ar
    27    29    30   ar
    28    30    31    1
    29     6     8    1
    30    13    14   ar
    31    14     9   ar
    32     8     2    1
    33    25    18   ar
    34    30    26   ar
    35    31    24    1
