@<TRIPOS>MOLECULE
*****
 26 29 0 0 0
SMALL
GASTEIGER

@<TRIPOS>ATOM
      1 N          60.8728   90.4257   11.3947 N.3     1  UNL1       -0.2892
      2 H          60.8669   89.9216   12.2814 H       1  UNL1        0.1239
      3 C          60.1553   89.5615   10.4006 C.3     1  UNL1        0.1024
      4 C          61.8505   86.0765   10.1858 C.ar    1  UNL1        0.0307
      5 C          61.2483   86.1907    8.8167 C.ar    1  UNL1        0.0067
      6 C          60.5400   87.5101    8.7305 C.ar    1  UNL1        0.0040
      7 C          60.7044   88.2113   10.0463 C.ar    1  UNL1        0.0232
      8 S          61.5144   87.3252   10.9457 S.2     1  UNL1       -0.0899
      9 C          64.2461   82.9136   10.2737 C.ar    1  UNL1        0.0207
     10 C          64.2453   82.5980   11.7400 C.ar    1  UNL1        0.0989
     11 N          63.4461   83.4419   12.6884 N.ar    1  UNL1       -0.2423
     12 C          62.6479   84.6013   12.1703 C.ar    1  UNL1        0.0993
     13 C          62.6488   84.9169   10.7039 C.ar    1  UNL1        0.0252
     14 C          63.4479   84.0731    9.7556 C.ar    1  UNL1        0.0036
     15 C          62.2920   90.8402   11.1417 C.3     1  UNL1        0.1024
     16 C          63.3131   90.7251   12.2344 C.ar    1  UNL1        0.0232
     17 C          63.3801   89.6398   13.2678 C.ar    1  UNL1        0.0040
     18 C          64.5550   89.9190   14.1576 C.ar    1  UNL1        0.0067
     19 C          65.2141   91.1767   13.6743 C.ar    1  UNL1        0.0307
     20 S          64.4465   91.6749   12.4857 S.2     1  UNL1       -0.0899
     21 C          66.4276   91.8228   14.2742 C.ar    1  UNL1        0.0252
     22 C          66.3489   92.4479   15.6355 C.ar    1  UNL1        0.0036
     23 C          67.5624   93.0941   16.2354 C.ar    1  UNL1        0.0207
     24 C          68.8546   93.1151   15.4739 C.ar    1  UNL1        0.0989
     25 N          68.9333   92.4900   14.1127 N.ar    1  UNL1       -0.2423
     26 C          67.7198   91.8438   13.5128 C.ar    1  UNL1        0.0993
@<TRIPOS>BOND
     1     9    10   ar
     2    10    11   ar
     3    11    12   ar
     4    12    13   ar
     5    13     4    1
     6     4     5   ar
     7     5     6   ar
     8     6     7   ar
     9     7     3    1
    10     3     1    1
    11     1    15    1
    12    15    16    1
    13    16    17   ar
    14    17    18   ar
    15    18    19   ar
    16    19    21    1
    17    21    22   ar
    18    22    23   ar
    19    23    24   ar
    20    24    25   ar
    21    25    26   ar
    22    19    20   ar
    23     7     8   ar
    24    13    14   ar
    25    14     9   ar
    26     8     4   ar
    27    20    16   ar
    28    26    21   ar
    29     1     2    1
@<TRIPOS>MOLECULE
*****
 26 29 0 0 0
SMALL
GASTEIGER

@<TRIPOS>ATOM
      1 N          60.8809   90.2091   11.4804 N.3     1  UNL1       -0.2892
      2 H          60.2904   91.0404   11.5067 H       1  UNL1        0.1239
      3 C          62.2815   90.6809   11.2240 C.3     1  UNL1        0.1024
      4 C          65.2128   91.1055   13.7326 C.ar    1  UNL1        0.0307
      5 C          64.5788   89.8437   14.2385 C.ar    1  UNL1        0.0067
      6 C          63.4036   89.5310   13.3604 C.ar    1  UNL1        0.0040
      7 C          63.3112   90.5997   12.3117 C.ar    1  UNL1        0.0232
      8 S          64.4294   91.5727   12.5418 S.2     1  UNL1       -0.0899
      9 C          67.5493   93.0812   16.2598 C.ar    1  UNL1        0.0207
     10 C          68.8299   93.1331   15.4805 C.ar    1  UNL1        0.0989
     11 N          68.9048   92.5091   14.1185 N.ar    1  UNL1       -0.2423
     12 C          67.6991   91.8332   13.5359 C.ar    1  UNL1        0.0993
     13 C          66.4186   91.7814   14.3152 C.ar    1  UNL1        0.0252
     14 C          66.3437   92.4054   15.6772 C.ar    1  UNL1        0.0036
     15 C          60.2293   89.2448   10.5340 C.3     1  UNL1        0.1024
     16 C          60.9120   87.9541   10.1904 C.ar    1  UNL1        0.0232
     17 C          61.0908   87.3911    8.8116 C.ar    1  UNL1        0.0040
     18 C          61.8250   86.0889    8.9343 C.ar    1  UNL1        0.0067
     19 C          62.0999   85.8470   10.3889 C.ar    1  UNL1        0.0307
     20 S          61.5356   86.9998   11.1652 S.2     1  UNL1       -0.0899
     21 C          62.8138   84.6606   10.9659 C.ar    1  UNL1        0.0252
     22 C          63.5669   83.7273   10.0649 C.ar    1  UNL1        0.0036
     23 C          64.2808   82.5410   10.6420 C.ar    1  UNL1        0.0207
     24 C          64.2415   82.2880   12.1200 C.ar    1  UNL1        0.0989
     25 N          63.4884   83.2213   13.0209 N.ar    1  UNL1       -0.2423
     26 C          62.7745   84.4076   12.4439 C.ar    1  UNL1        0.0993
@<TRIPOS>BOND
     1     9    10   ar
     2    10    11   ar
     3    11    12   ar
     4    12    13   ar
     5    13     4    1
     6     4     5   ar
     7     5     6   ar
     8     6     7   ar
     9     7     3    1
    10     3     1    1
    11     1    15    1
    12    15    16    1
    13    16    17   ar
    14    17    18   ar
    15    18    19   ar
    16    19    21    1
    17    21    22   ar
    18    22    23   ar
    19    23    24   ar
    20    24    25   ar
    21    25    26   ar
    22    19    20   ar
    23     7     8   ar
    24    13    14   ar
    25    14     9   ar
    26     8     4   ar
    27    20    16   ar
    28    26    21   ar
    29     1     2    1
@<TRIPOS>MOLECULE
*****
 26 29 0 0 0
SMALL
GASTEIGER

@<TRIPOS>ATOM
      1 N          64.7010   84.6666   15.3191 N.3     1  UNL1       -0.2892
      2 H          65.2378   85.3039   14.7308 H       1  UNL1        0.1239
      3 C          64.2032   83.5688   14.4264 C.3     1  UNL1        0.1024
      4 C          62.6274   84.9044   11.1403 C.ar    1  UNL1        0.0307
      5 C          63.5254   83.8247   10.6132 C.ar    1  UNL1        0.0067
      6 C          64.2250   83.1929   11.7799 C.ar    1  UNL1        0.0040
      7 C          63.7593   83.8822   13.0282 C.ar    1  UNL1        0.0232
      8 S          62.7720   84.9400   12.6328 S.2     1  UNL1       -0.0899
      9 C          60.7698   86.4901    8.0121 C.ar    1  UNL1        0.0207
     10 C          59.9668   87.5690    8.6763 C.ar    1  UNL1        0.0989
     11 N          60.0507   87.7598   10.1617 N.ar    1  UNL1       -0.2423
     12 C          60.9375   86.8716   10.9831 C.ar    1  UNL1        0.0993
     13 C          61.7405   85.7927   10.3189 C.ar    1  UNL1        0.0252
     14 C          61.6567   85.6019    8.8335 C.ar    1  UNL1        0.0036
     15 C          63.7261   85.5064   16.0901 C.3     1  UNL1        0.1024
     16 C          63.7082   86.9948   15.9053 C.ar    1  UNL1        0.0232
     17 C          63.0821   87.9913   16.8354 C.ar    1  UNL1        0.0040
     18 C          63.3001   89.3605   16.2628 C.ar    1  UNL1        0.0067
     19 C          64.0609   89.2102   14.9788 C.ar    1  UNL1        0.0307
     20 S          64.3131   87.7481   14.7579 S.2     1  UNL1       -0.0899
     21 C          64.4935   90.3261   14.0745 C.ar    1  UNL1        0.0252
     22 C          63.8298   90.5120   12.7422 C.ar    1  UNL1        0.0036
     23 C          64.2624   91.6278   11.8380 C.ar    1  UNL1        0.0207
     24 C          65.3589   92.5577   12.2660 C.ar    1  UNL1        0.0989
     25 N          66.0226   92.3718   13.5982 N.ar    1  UNL1       -0.2423
     26 C          65.5899   91.2560   14.5025 C.ar    1  UNL1        0.0993
@<TRIPOS>BOND
     1     9    10   ar
     2    10    11   ar
     3    11    12   ar
     4    12    13   ar
     5    13     4    1
     6     4     5   ar
     7     5     6   ar
     8     6     7   ar
     9     7     3    1
    10     3     1    1
    11     1    15    1
    12    15    16    1
    13    16    17   ar
    14    17    18   ar
    15    18    19   ar
    16    19    21    1
    17    21    22   ar
    18    22    23   ar
    19    23    24   ar
    20    24    25   ar
    21    25    26   ar
    22    19    20   ar
    23     7     8   ar
    24    13    14   ar
    25    14     9   ar
    26     8     4   ar
    27    20    16   ar
    28    26    21   ar
    29     1     2    1
@<TRIPOS>MOLECULE
*****
 26 29 0 0 0
SMALL
GASTEIGER

@<TRIPOS>ATOM
      1 N          61.6061   89.4196    9.9814 N.3     1  UNL1       -0.2892
      2 H          62.4866   89.3765    9.4683 H       1  UNL1        0.1239
      3 C          61.9390   89.8589   11.3765 C.3     1  UNL1        0.1024
      4 C          65.0887   91.6875   12.7187 C.ar    1  UNL1        0.0307
      5 C          65.0127   92.2285   11.3217 C.ar    1  UNL1        0.0067
      6 C          63.8236   91.6094   10.6489 C.ar    1  UNL1        0.0040
      7 C          63.1647   90.6857   11.6300 C.ar    1  UNL1        0.0232
      8 S          63.9465   90.7339   12.9092 S.2     1  UNL1       -0.0899
      9 C          66.7522   92.6529   16.1901 C.ar    1  UNL1        0.0207
     10 C          68.1972   92.7401   15.7974 C.ar    1  UNL1        0.0989
     11 N          68.6061   92.4764   14.3785 N.ar    1  UNL1       -0.2423
     12 C          67.5700   92.1255   13.3523 C.ar    1  UNL1        0.0993
     13 C          66.1249   92.0383   13.7450 C.ar    1  UNL1        0.0252
     14 C          65.7160   92.3020   15.1639 C.ar    1  UNL1        0.0036
     15 C          60.9077   88.1118    9.7535 C.3     1  UNL1        0.1024
     16 C          61.6543   86.8225    9.9277 C.ar    1  UNL1        0.0232
     17 C          62.4657   86.1246    8.8767 C.ar    1  UNL1        0.0040
     18 C          63.0335   84.8755    9.4829 C.ar    1  UNL1        0.0067
     19 C          62.5730   84.8014   10.9085 C.ar    1  UNL1        0.0307
     20 S          61.7206   86.0047   11.1834 S.2     1  UNL1       -0.0899
     21 C          62.9063   83.7148   11.8874 C.ar    1  UNL1        0.0252
     22 C          62.7195   82.2767   11.5039 C.ar    1  UNL1        0.0036
     23 C          63.0528   81.1901   12.4828 C.ar    1  UNL1        0.0207
     24 C          63.5730   81.5417   13.8452 C.ar    1  UNL1        0.0989
     25 N          63.7598   82.9797   14.2285 N.ar    1  UNL1       -0.2423
     26 C          63.4265   84.0663   13.2496 C.ar    1  UNL1        0.0993
@<TRIPOS>BOND
     1     9    10   ar
     2    10    11   ar
     3    11    12   ar
     4    12    13   ar
     5    13     4    1
     6     4     5   ar
     7     5     6   ar
     8     6     7   ar
     9     7     3    1
    10     3     1    1
    11     1    15    1
    12    15    16    1
    13    16    17   ar
    14    17    18   ar
    15    18    19   ar
    16    19    21    1
    17    21    22   ar
    18    22    23   ar
    19    23    24   ar
    20    24    25   ar
    21    25    26   ar
    22    19    20   ar
    23     7     8   ar
    24    13    14   ar
    25    14     9   ar
    26     8     4   ar
    27    20    16   ar
    28    26    21   ar
    29     1     2    1
@<TRIPOS>MOLECULE
*****
 26 29 0 0 0
SMALL
GASTEIGER

@<TRIPOS>ATOM
      1 N          62.9282   84.6607   14.9656 N.3     1  UNL1       -0.2892
      2 H          62.1576   85.2208   14.6011 H       1  UNL1        0.1239
      3 C          63.6211   85.4982   15.9992 C.3     1  UNL1        0.1024
      4 C          64.0650   89.2224   14.9998 C.ar    1  UNL1        0.0307
      5 C          63.3126   89.3564   16.2905 C.ar    1  UNL1        0.0067
      6 C          63.0547   87.9776   16.8220 C.ar    1  UNL1        0.0040
      7 C          63.6478   86.9915   15.8598 C.ar    1  UNL1        0.0232
      8 S          64.2721   87.7608   14.7336 S.2     1  UNL1       -0.0899
      9 C          64.3617   91.6998   11.9136 C.ar    1  UNL1        0.0207
     10 C          65.4564   92.6103   12.3852 C.ar    1  UNL1        0.0989
     11 N          66.0873   92.3916   13.7284 N.ar    1  UNL1       -0.2423
     12 C          65.6235   91.2623   14.5999 C.ar    1  UNL1        0.0993
     13 C          64.5288   90.3517   14.1283 C.ar    1  UNL1        0.0252
     14 C          63.8979   90.5705   12.7851 C.ar    1  UNL1        0.0036
     15 C          63.6912   84.1498   13.7796 C.3     1  UNL1        0.1024
     16 C          63.2568   84.5196   12.3923 C.ar    1  UNL1        0.0232
     17 C          63.6232   83.7950   11.1311 C.ar    1  UNL1        0.0040
     18 C          62.9725   84.5066    9.9820 C.ar    1  UNL1        0.0067
     19 C          62.2041   85.6710   10.5330 C.ar    1  UNL1        0.0307
     20 S          62.3798   85.6790   12.0227 S.2     1  UNL1       -0.0899
     21 C          61.4010   86.6546    9.7346 C.ar    1  UNL1        0.0252
     22 C          60.5008   86.1717    8.6362 C.ar    1  UNL1        0.0036
     23 C          59.6976   87.1553    7.8378 C.ar    1  UNL1        0.0207
     24 C          59.7947   88.6219    8.1379 C.ar    1  UNL1        0.0989
     25 N          60.6948   89.1047    9.2363 N.ar    1  UNL1       -0.2423
     26 C          61.4980   88.1210   10.0347 C.ar    1  UNL1        0.0993
@<TRIPOS>BOND
     1     9    10   ar
     2    10    11   ar
     3    11    12   ar
     4    12    13   ar
     5    13     4    1
     6     4     5   ar
     7     5     6   ar
     8     6     7   ar
     9     7     3    1
    10     3     1    1
    11     1    15    1
    12    15    16    1
    13    16    17   ar
    14    17    18   ar
    15    18    19   ar
    16    19    21    1
    17    21    22   ar
    18    22    23   ar
    19    23    24   ar
    20    24    25   ar
    21    25    26   ar
    22    19    20   ar
    23     7     8   ar
    24    13    14   ar
    25    14     9   ar
    26     8     4   ar
    27    20    16   ar
    28    26    21   ar
    29     1     2    1
@<TRIPOS>MOLECULE
*****
 26 29 0 0 0
SMALL
GASTEIGER

@<TRIPOS>ATOM
      1 N          63.6165   89.1120   14.7137 N.3     1  UNL1       -0.2892
      2 H          63.5639   89.5736   15.6217 H       1  UNL1        0.1239
      3 C          64.5520   87.9503   14.8720 C.3     1  UNL1        0.1024
      4 C          63.3205   84.2793   14.6023 C.ar    1  UNL1        0.0307
      5 C          63.0029   84.5870   16.0357 C.ar    1  UNL1        0.0067
      6 C          63.4255   85.9996   16.3112 C.ar    1  UNL1        0.0040
      7 C          64.0044   86.5649   15.0481 C.ar    1  UNL1        0.0232
      8 S          63.9395   85.5017   13.9920 S.2     1  UNL1       -0.0899
      9 C          61.8066   80.7086   13.7606 C.ar    1  UNL1        0.0207
     10 C          62.5515   80.3743   12.5023 C.ar    1  UNL1        0.0989
     11 N          63.5528   81.3417   11.9440 N.ar    1  UNL1       -0.2423
     12 C          63.8092   82.6433   12.6440 C.ar    1  UNL1        0.0993
     13 C          63.0642   82.9776   13.9023 C.ar    1  UNL1        0.0252
     14 C          62.0629   82.0102   14.4605 C.ar    1  UNL1        0.0036
     15 C          63.9107   90.1794   13.7017 C.3     1  UNL1        0.1024
     16 C          63.3141   90.0955   12.3280 C.ar    1  UNL1        0.0232
     17 C          63.4660   91.1138   11.2371 C.ar    1  UNL1        0.0040
     18 C          62.7066   90.6262   10.0389 C.ar    1  UNL1        0.0067
     19 C          62.0854   89.3066   10.3893 C.ar    1  UNL1        0.0307
     20 S          62.4609   88.9787   11.8041 S.2     1  UNL1       -0.0899
     21 C          61.2377   88.4631    9.4839 C.ar    1  UNL1        0.0252
     22 C          61.5070   86.9928    9.3590 C.ar    1  UNL1        0.0036
     23 C          60.6593   86.1493    8.4536 C.ar    1  UNL1        0.0207
     24 C          59.5421   86.7761    7.6732 C.ar    1  UNL1        0.0989
     25 N          59.2727   88.2464    7.7981 N.ar    1  UNL1       -0.2423
     26 C          60.1205   89.0899    8.7035 C.ar    1  UNL1        0.0993
@<TRIPOS>BOND
     1     9    10   ar
     2    10    11   ar
     3    11    12   ar
     4    12    13   ar
     5    13     4    1
     6     4     5   ar
     7     5     6   ar
     8     6     7   ar
     9     7     3    1
    10     3     1    1
    11     1    15    1
    12    15    16    1
    13    16    17   ar
    14    17    18   ar
    15    18    19   ar
    16    19    21    1
    17    21    22   ar
    18    22    23   ar
    19    23    24   ar
    20    24    25   ar
    21    25    26   ar
    22    19    20   ar
    23     7     8   ar
    24    13    14   ar
    25    14     9   ar
    26     8     4   ar
    27    20    16   ar
    28    26    21   ar
    29     1     2    1
@<TRIPOS>MOLECULE
*****
 26 29 0 0 0
SMALL
GASTEIGER

@<TRIPOS>ATOM
      1 N          63.2717   82.7794   13.9028 N.3     1  UNL1       -0.2892
      2 H          62.4546   83.3822   13.8058 H       1  UNL1        0.1239
      3 C          64.1833   83.4418   14.8929 C.3     1  UNL1        0.1024
      4 C          63.6527   87.1685   15.8390 C.ar    1  UNL1        0.0307
      5 C          62.8510   86.4819   16.9048 C.ar    1  UNL1        0.0067
      6 C          62.9521   85.0023   16.6801 C.ar    1  UNL1        0.0040
      7 C          63.8164   84.7745   15.4754 C.ar    1  UNL1        0.0232
      8 S          64.2493   86.1132   14.9556 S.2     1  UNL1       -0.0899
      9 C          64.7637   90.6789   14.3582 C.ar    1  UNL1        0.0207
     10 C          64.1759   91.6137   15.3735 C.ar    1  UNL1        0.0989
     11 N          63.4137   91.0667   16.5439 N.ar    1  UNL1       -0.2423
     12 C          63.2392   89.5850   16.6990 C.ar    1  UNL1        0.0993
     13 C          63.8271   88.6503   15.6838 C.ar    1  UNL1        0.0252
     14 C          64.5893   89.1973   14.5134 C.ar    1  UNL1        0.0036
     15 C          63.7591   82.4842   12.5153 C.3     1  UNL1        0.1024
     16 C          63.4420   83.4269   11.3925 C.ar    1  UNL1        0.0232
     17 C          63.9754   83.3425    9.9931 C.ar    1  UNL1        0.0040
     18 C          63.3989   84.4830    9.2077 C.ar    1  UNL1        0.0067
     19 C          62.5092   85.2723   10.1216 C.ar    1  UNL1        0.0307
     20 S          62.5359   84.6196   11.4720 S.2     1  UNL1       -0.0899
     21 C          61.7297   86.4989    9.7506 C.ar    1  UNL1        0.0252
     22 C          60.5221   86.3819    8.8684 C.ar    1  UNL1        0.0036
     23 C          59.7426   87.6085    8.4973 C.ar    1  UNL1        0.0207
     24 C          60.1707   88.9522    9.0084 C.ar    1  UNL1        0.0989
     25 N          61.3782   89.0693    9.8905 N.ar    1  UNL1       -0.2423
     26 C          62.1577   87.8427   10.2616 C.ar    1  UNL1        0.0993
@<TRIPOS>BOND
     1     9    10   ar
     2    10    11   ar
     3    11    12   ar
     4    12    13   ar
     5    13     4    1
     6     4     5   ar
     7     5     6   ar
     8     6     7   ar
     9     7     3    1
    10     3     1    1
    11     1    15    1
    12    15    16    1
    13    16    17   ar
    14    17    18   ar
    15    18    19   ar
    16    19    21    1
    17    21    22   ar
    18    22    23   ar
    19    23    24   ar
    20    24    25   ar
    21    25    26   ar
    22    19    20   ar
    23     7     8   ar
    24    13    14   ar
    25    14     9   ar
    26     8     4   ar
    27    20    16   ar
    28    26    21   ar
    29     1     2    1
@<TRIPOS>MOLECULE
*****
 26 29 0 0 0
SMALL
GASTEIGER

@<TRIPOS>ATOM
      1 N          61.1341   88.7314   11.2831 N.3     1  UNL1       -0.2892
      2 H          60.4410   88.5671   10.5530 H       1  UNL1        0.1239
      3 C          61.2797   90.2184   11.4152 C.3     1  UNL1        0.1024
      4 C          64.6955   91.5799   12.6578 C.ar    1  UNL1        0.0307
      5 C          64.7557   91.9321   11.2010 C.ar    1  UNL1        0.0067
      6 C          63.4835   91.4650   10.5581 C.ar    1  UNL1        0.0040
      7 C          62.6370   90.8240   11.6177 C.ar    1  UNL1        0.0232
      8 S          63.3861   90.8950   12.9153 S.2     1  UNL1       -0.0899
      9 C          68.2622   92.1963   14.2854 C.ar    1  UNL1        0.0207
     10 C          67.8837   92.4286   15.7181 C.ar    1  UNL1        0.0989
     11 N          66.4424   92.3781   16.1307 N.ar    1  UNL1       -0.2423
     12 C          65.3797   92.0951   15.1106 C.ar    1  UNL1        0.0993
     13 C          65.7583   91.8628   13.6779 C.ar    1  UNL1        0.0252
     14 C          67.1995   91.9134   13.2653 C.ar    1  UNL1        0.0036
     15 C          62.3276   87.8880   10.9449 C.3     1  UNL1        0.1024
     16 C          62.7001   86.7295   11.8219 C.ar    1  UNL1        0.0232
     17 C          63.5540   86.7947   13.0534 C.ar    1  UNL1        0.0040
     18 C          63.6658   85.4079   13.6139 C.ar    1  UNL1        0.0067
     19 C          62.8810   84.4855   12.7289 C.ar    1  UNL1        0.0307
     20 S          62.2842   85.3024   11.6213 S.2     1  UNL1       -0.0899
     21 C          62.7211   83.0061   12.9181 C.ar    1  UNL1        0.0252
     22 C          62.9326   82.0749   11.7614 C.ar    1  UNL1        0.0036
     23 C          62.7727   80.5955   11.9506 C.ar    1  UNL1        0.0207
     24 C          62.4012   80.0474   13.2966 C.ar    1  UNL1        0.0989
     25 N          62.1896   80.9786   14.4532 N.ar    1  UNL1       -0.2423
     26 C          62.3496   82.4580   14.2640 C.ar    1  UNL1        0.0993
@<TRIPOS>BOND
     1     9    10   ar
     2    10    11   ar
     3    11    12   ar
     4    12    13   ar
     5    13     4    1
     6     4     5   ar
     7     5     6   ar
     8     6     7   ar
     9     7     3    1
    10     3     1    1
    11     1    15    1
    12    15    16    1
    13    16    17   ar
    14    17    18   ar
    15    18    19   ar
    16    19    21    1
    17    21    22   ar
    18    22    23   ar
    19    23    24   ar
    20    24    25   ar
    21    25    26   ar
    22    19    20   ar
    23     7     8   ar
    24    13    14   ar
    25    14     9   ar
    26     8     4   ar
    27    20    16   ar
    28    26    21   ar
    29     1     2    1
@<TRIPOS>MOLECULE
*****
 26 29 0 0 0
SMALL
GASTEIGER

@<TRIPOS>ATOM
      1 N          62.5283   82.0886   12.3682 N.3     1  UNL1       -0.2892
      2 H          61.6129   82.5179   12.2337 H       1  UNL1        0.1239
      3 C          62.9095   82.3216   13.8001 C.3     1  UNL1        0.1024
      4 C          64.0874   85.8536   14.8971 C.ar    1  UNL1        0.0307
      5 C          65.4018   85.1646   14.6784 C.ar    1  UNL1        0.0067
      6 C          65.1206   83.7577   14.2409 C.ar    1  UNL1        0.0040
      7 C          63.6323   83.5771   14.1891 C.ar    1  UNL1        0.0232
      8 S          62.9938   84.8724   14.5947 S.2     1  UNL1       -0.0899
      9 C          64.1483   89.8217   14.8948 C.ar    1  UNL1        0.0207
     10 C          63.5240   90.1156   16.2266 C.ar    1  UNL1        0.0989
     11 N          63.0875   88.9888   17.1153 N.ar    1  UNL1       -0.2423
     12 C          63.2753   87.5681   16.6721 C.ar    1  UNL1        0.0993
     13 C          63.8996   87.2743   15.3403 C.ar    1  UNL1        0.0252
     14 C          64.3361   88.4011   14.4516 C.ar    1  UNL1        0.0036
     15 C          63.4102   82.5947   11.2654 C.3     1  UNL1        0.1024
     16 C          63.0882   83.8908   10.5825 C.ar    1  UNL1        0.0232
     17 C          63.3954   84.2355    9.1553 C.ar    1  UNL1        0.0040
     18 C          62.8994   85.6275    8.8976 C.ar    1  UNL1        0.0067
     19 C          62.2857   86.1431   10.1654 C.ar    1  UNL1        0.0307
     20 S          62.4024   85.0697   11.2068 S.2     1  UNL1       -0.0899
     21 C          61.6644   87.4947   10.3582 C.ar    1  UNL1        0.0252
     22 C          62.3767   88.7233    9.8754 C.ar    1  UNL1        0.0036
     23 C          61.7554   90.0749   10.0681 C.ar    1  UNL1        0.0207
     24 C          60.4217   90.1978   10.7437 C.ar    1  UNL1        0.0989
     25 N          59.7095   88.9692   11.2265 N.ar    1  UNL1       -0.2423
     26 C          60.3308   87.6176   11.0337 C.ar    1  UNL1        0.0993
@<TRIPOS>BOND
     1     9    10   ar
     2    10    11   ar
     3    11    12   ar
     4    12    13   ar
     5    13     4    1
     6     4     5   ar
     7     5     6   ar
     8     6     7   ar
     9     7     3    1
    10     3     1    1
    11     1    15    1
    12    15    16    1
    13    16    17   ar
    14    17    18   ar
    15    18    19   ar
    16    19    21    1
    17    21    22   ar
    18    22    23   ar
    19    23    24   ar
    20    24    25   ar
    21    25    26   ar
    22    19    20   ar
    23     7     8   ar
    24    13    14   ar
    25    14     9   ar
    26     8     4   ar
    27    20    16   ar
    28    26    21   ar
    29     1     2    1
