@<TRIPOS>MOLECULE
*****
 39 43 0 0 0
SMALL
GASTEIGER

@<TRIPOS>ATOM
      1 C          62.7353   85.8121   10.8100 C.ar    1  UNL1        0.0482
      2 C          61.9368   85.2563    9.6683 C.ar    1  UNL1        0.0177
      3 C          60.9309   86.1196    8.9662 C.ar    1  UNL1        0.0376
      4 C          60.7236   87.5387    9.4057 C.ar    1  UNL1        0.1310
      5 O          59.7177   88.4020    8.7036 O.3     1  UNL1       -0.5058
      6 C          61.5221   88.0945   10.5475 C.ar    1  UNL1        0.0288
      7 C          62.5280   87.2312   11.2496 C.ar    1  UNL1        0.0147
      8 H          59.2189   88.0548    7.9905 H       1  UNL1        0.2922
      9 N          63.7412   84.9488   11.5121 N.pl3   1  UNL1       -0.3125
     10 H          64.6499   84.8540   11.1454 H       1  UNL1        0.1522
     11 C          62.7830   80.5536   11.3952 C.ar    1  UNL1        0.1389
     12 C          62.4043   79.8347   12.6561 C.ar    1  UNL1        0.0384
     13 C          62.3451   80.5809   13.9559 C.ar    1  UNL1        0.0223
     14 C          62.6645   82.0460   13.9949 C.ar    1  UNL1        0.0826
     15 N          62.6052   82.7922   15.2948 N.ar    1  UNL1       -0.2452
     16 C          62.9246   84.2573   15.3338 C.ar    1  UNL1        0.0833
     17 C          62.8654   85.0035   16.6336 C.ar    1  UNL1        0.0305
     18 C          63.1848   86.4686   16.6726 C.ar    1  UNL1        0.0592
     19 CL         63.1255   87.2148   17.9725 Cl      1  UNL1       -0.0822
     20 C          63.5634   87.1874   15.4117 C.ar    1  UNL1        0.0115
     21 C          63.6227   86.4412   14.1118 C.ar    1  UNL1        0.0036
     22 C          63.3033   84.9762   14.0729 C.ar    1  UNL1        0.0312
     23 C          63.3625   84.2300   12.7730 C.ar    1  UNL1        0.0513
     24 C          63.0431   82.7648   12.7341 C.ar    1  UNL1        0.0341
     25 C          63.1023   82.0186   11.4342 C.ar    1  UNL1        0.0396
     26 C          62.7901   78.3083   10.0880 C.3     1  UNL1        0.2525
     27 O          62.8422   79.8073   10.0953 O.3     1  UNL1       -0.4714
     28 C          61.3148   89.5136   10.9870 C.3     1  UNL1        0.1023
     29 N          62.4957   90.3731   11.3282 N.3     1  UNL1       -0.2664
     30 C          63.1399   91.2174   10.2688 C.3     1  UNL1        0.0899
     31 C          64.3209   92.0770   10.6100 C.3     1  UNL1        0.0897
     32 N          64.8577   92.0923   12.0106 N.3     1  UNL1       -0.2691
     33 C          64.2135   91.2481   13.0700 C.3     1  UNL1        0.0897
     34 C          63.0325   90.3885   12.7288 C.3     1  UNL1        0.0899
     35 C          66.0386   92.9519   12.3518 C.3     1  UNL1        0.0897
     36 C          66.4843   94.0250   11.4031 C.3     1  UNL1        0.0897
     37 N          67.4061   93.6878   10.2689 N.3     1  UNL1       -0.2691
     38 C          68.0183   92.3212   10.1808 C.3     1  UNL1        0.0897
     39 C          67.7158   94.7172    9.2227 C.3     1  UNL1        0.0897
@<TRIPOS>BOND
     1    26    27    1
     2    27    11    1
     3    11    12   ar
     4    12    13   ar
     5    13    14   ar
     6    14    15   ar
     7    15    16   ar
     8    16    17   ar
     9    17    18   ar
    10    18    19    1
    11    18    20   ar
    12    20    21   ar
    13    21    22   ar
    14    22    23   ar
    15    23     9    1
    16     9     1    1
    17     1     2   ar
    18     2     3   ar
    19     3     4   ar
    20     4     5    1
    21     4     6   ar
    22     6    28    1
    23    28    29    1
    24    29    30    1
    25    30    31    1
    26    31    32    1
    27    32    35    1
    28    35    36    1
    29    36    37    1
    30    37    38    1
    31    37    39    1
    32    32    33    1
    33    33    34    1
    34     6     7   ar
    35    23    24   ar
    36    24    25   ar
    37    25    11   ar
    38    24    14   ar
    39    22    16   ar
    40     7     1   ar
    41    34    29    1
    42     9    10    1
    43     5     8    1
@<TRIPOS>MOLECULE
*****
 39 43 0 0 0
SMALL
GASTEIGER

@<TRIPOS>ATOM
      1 C          62.7130   85.7008   10.5060 C.ar    1  UNL1        0.0482
      2 C          61.8535   85.2878    9.3482 C.ar    1  UNL1        0.0177
      3 C          60.7957   86.2169    8.8304 C.ar    1  UNL1        0.0376
      4 C          60.5975   87.5589    9.4705 C.ar    1  UNL1        0.1310
      5 O          59.5398   88.4879    8.9527 O.3     1  UNL1       -0.5058
      6 C          61.4572   87.9719   10.6283 C.ar    1  UNL1        0.0288
      7 C          62.5149   87.0429   11.1461 C.ar    1  UNL1        0.0147
      8 H          59.0029   88.2299    8.2295 H       1  UNL1        0.2922
      9 N          63.7708   84.7718   11.0238 N.pl3   1  UNL1       -0.3125
     10 H          64.6767   84.7940   10.6390 H       1  UNL1        0.1522
     11 C          63.5283   86.2235   15.2762 C.ar    1  UNL1        0.1389
     12 C          63.2057   85.2606   16.3802 C.ar    1  UNL1        0.0384
     13 C          62.9640   83.8138   16.0667 C.ar    1  UNL1        0.0223
     14 C          63.0449   83.3299   14.6492 C.ar    1  UNL1        0.0826
     15 N          62.8032   81.8831   14.3357 N.ar    1  UNL1       -0.2452
     16 C          62.8840   81.3991   12.9182 C.ar    1  UNL1        0.0833
     17 C          62.6423   79.9523   12.6047 C.ar    1  UNL1        0.0305
     18 C          62.7231   79.4684   11.1872 C.ar    1  UNL1        0.0592
     19 CL         62.4814   78.0216   10.8737 Cl      1  UNL1       -0.0822
     20 C          63.0457   80.4313   10.0832 C.ar    1  UNL1        0.0115
     21 C          63.2874   81.8781   10.3967 C.ar    1  UNL1        0.0036
     22 C          63.2065   82.3620   11.8142 C.ar    1  UNL1        0.0312
     23 C          63.4482   83.8089   12.1277 C.ar    1  UNL1        0.0513
     24 C          63.3674   84.2928   13.5453 C.ar    1  UNL1        0.0341
     25 C          63.6091   85.7396   13.8588 C.ar    1  UNL1        0.0396
     26 C          63.1131   88.2992   16.7826 C.3     1  UNL1        0.2525
     27 O          63.7700   87.6703   15.5897 O.3     1  UNL1       -0.4714
     28 C          61.2590   89.3139   11.2684 C.3     1  UNL1        0.1023
     29 N          62.4371   90.2097   11.5125 N.3     1  UNL1       -0.2664
     30 C          63.0030   91.0275   10.3895 C.3     1  UNL1        0.0899
     31 C          64.1811   91.9232   10.6336 C.3     1  UNL1        0.0897
     32 N          64.7934   92.0013   12.0007 N.3     1  UNL1       -0.2691
     33 C          64.2276   91.1835   13.1237 C.3     1  UNL1        0.0897
     34 C          63.0494   90.2877   12.8796 C.3     1  UNL1        0.0899
     35 C          65.9715   92.8970   12.2448 C.3     1  UNL1        0.0897
     36 C          66.3471   93.9355   11.2297 C.3     1  UNL1        0.0897
     37 N          67.3677   93.6203   10.1766 N.3     1  UNL1       -0.2691
     38 C          67.8033   94.6835    9.2122 C.3     1  UNL1        0.0897
     39 C          67.9527   92.2419   10.0879 C.3     1  UNL1        0.0897
@<TRIPOS>BOND
     1    26    27    1
     2    27    11    1
     3    11    12   ar
     4    12    13   ar
     5    13    14   ar
     6    14    15   ar
     7    15    16   ar
     8    16    17   ar
     9    17    18   ar
    10    18    19    1
    11    18    20   ar
    12    20    21   ar
    13    21    22   ar
    14    22    23   ar
    15    23     9    1
    16     9     1    1
    17     1     2   ar
    18     2     3   ar
    19     3     4   ar
    20     4     5    1
    21     4     6   ar
    22     6    28    1
    23    28    29    1
    24    29    30    1
    25    30    31    1
    26    31    32    1
    27    32    35    1
    28    35    36    1
    29    36    37    1
    30    37    38    1
    31    37    39    1
    32    32    33    1
    33    33    34    1
    34     6     7   ar
    35    23    24   ar
    36    24    25   ar
    37    25    11   ar
    38    24    14   ar
    39    22    16   ar
    40     7     1   ar
    41    34    29    1
    42     9    10    1
    43     5     8    1
@<TRIPOS>MOLECULE
*****
 39 43 0 0 0
SMALL
GASTEIGER

@<TRIPOS>ATOM
      1 C          62.7334   86.0456   11.0707 C.ar    1  UNL1        0.0482
      2 C          61.8220   85.4380   10.0459 C.ar    1  UNL1        0.0177
      3 C          60.8100   86.2922    9.3416 C.ar    1  UNL1        0.0376
      4 C          60.7093   87.7541    9.6620 C.ar    1  UNL1        0.1310
      5 O          59.6972   88.6083    8.9577 O.3     1  UNL1       -0.5058
      6 C          61.6207   88.3618   10.6868 C.ar    1  UNL1        0.0288
      7 C          62.6327   87.5076   11.3911 C.ar    1  UNL1        0.0147
      8 H          59.1279   88.2286    8.3176 H       1  UNL1        0.2922
      9 N          63.7455   85.1914   11.7750 N.pl3   1  UNL1       -0.3125
     10 H          64.6736   85.1573   11.4483 H       1  UNL1        0.1522
     11 C          62.8195   80.8085   11.3478 C.ar    1  UNL1        0.1389
     12 C          62.4176   80.0063   12.5498 C.ar    1  UNL1        0.0384
     13 C          62.3242   80.6650   13.8942 C.ar    1  UNL1        0.0223
     14 C          62.6328   82.1260   14.0366 C.ar    1  UNL1        0.0826
     15 N          62.5395   82.7847   15.3810 N.ar    1  UNL1       -0.2452
     16 C          62.8481   84.2456   15.5234 C.ar    1  UNL1        0.0833
     17 C          62.7548   84.9044   16.8677 C.ar    1  UNL1        0.0305
     18 C          63.0634   86.3654   17.0101 C.ar    1  UNL1        0.0592
     19 CL         62.9701   87.0241   18.3545 Cl      1  UNL1       -0.0822
     20 C          63.4654   87.1676   15.8081 C.ar    1  UNL1        0.0115
     21 C          63.5588   86.5089   14.4637 C.ar    1  UNL1        0.0036
     22 C          63.2501   85.0479   14.3213 C.ar    1  UNL1        0.0312
     23 C          63.3435   84.3892   12.9770 C.ar    1  UNL1        0.0513
     24 C          63.0348   82.9282   12.8346 C.ar    1  UNL1        0.0341
     25 C          63.1282   82.2694   11.4902 C.ar    1  UNL1        0.0396
     26 C          62.8059   78.6579    9.8902 C.3     1  UNL1        0.2525
     27 O          62.9129   80.1498   10.0034 O.3     1  UNL1       -0.4714
     28 C          61.5200   89.8237   11.0072 C.3     1  UNL1        0.1023
     29 N          62.7378   90.5805   11.4477 N.3     1  UNL1       -0.2664
     30 C          63.1893   90.5089   12.8764 C.3     1  UNL1        0.0899
     31 C          64.4071   91.2657   13.3169 C.3     1  UNL1        0.0897
     32 N          65.1734   92.0942   12.3288 N.3     1  UNL1       -0.2691
     33 C          64.7220   92.1659   10.9002 C.3     1  UNL1        0.0897
     34 C          63.5041   91.4090   10.4596 C.3     1  UNL1        0.0899
     35 C          66.3913   92.8510   12.7694 C.3     1  UNL1        0.0897
     36 C          67.3894   92.2008   13.6810 C.3     1  UNL1        0.0897
     37 N          67.5652   92.7055   15.0826 N.3     1  UNL1       -0.2691
     38 C          68.8954   93.2379   15.5267 C.3     1  UNL1        0.0897
     39 C          66.4108   92.6778   16.0400 C.3     1  UNL1        0.0897
@<TRIPOS>BOND
     1    26    27    1
     2    27    11    1
     3    11    12   ar
     4    12    13   ar
     5    13    14   ar
     6    14    15   ar
     7    15    16   ar
     8    16    17   ar
     9    17    18   ar
    10    18    19    1
    11    18    20   ar
    12    20    21   ar
    13    21    22   ar
    14    22    23   ar
    15    23     9    1
    16     9     1    1
    17     1     2   ar
    18     2     3   ar
    19     3     4   ar
    20     4     5    1
    21     4     6   ar
    22     6    28    1
    23    28    29    1
    24    29    30    1
    25    30    31    1
    26    31    32    1
    27    32    35    1
    28    35    36    1
    29    36    37    1
    30    37    38    1
    31    37    39    1
    32    32    33    1
    33    33    34    1
    34     6     7   ar
    35    23    24   ar
    36    24    25   ar
    37    25    11   ar
    38    24    14   ar
    39    22    16   ar
    40     7     1   ar
    41    34    29    1
    42     9    10    1
    43     5     8    1
@<TRIPOS>MOLECULE
*****
 39 43 0 0 0
SMALL
GASTEIGER

@<TRIPOS>ATOM
      1 C          64.3390   88.2236   15.0434 C.ar    1  UNL1        0.0482
      2 C          63.1258   88.3650   15.9139 C.ar    1  UNL1        0.0177
      3 C          62.7635   89.7045   16.4837 C.ar    1  UNL1        0.0376
      4 C          63.6145   90.9025   16.1829 C.ar    1  UNL1        0.1310
      5 O          63.2522   92.2419   16.7527 O.3     1  UNL1       -0.5058
      6 C          64.8278   90.7611   15.3123 C.ar    1  UNL1        0.0288
      7 C          65.1901   89.4216   14.7425 C.ar    1  UNL1        0.0147
      8 H          62.4943   92.3303   17.2965 H       1  UNL1        0.2922
      9 N          64.7013   86.8841   14.4736 N.pl3   1  UNL1       -0.3125
     10 H          65.5358   86.4409   14.7502 H       1  UNL1        0.1522
     11 C          62.6567   89.3349   11.3014 C.ar    1  UNL1        0.1389
     12 C          61.7475   88.6707   10.3104 C.ar    1  UNL1        0.0384
     13 C          61.5199   87.1896   10.3767 C.ar    1  UNL1        0.0223
     14 C          62.2015   86.3726   11.4340 C.ar    1  UNL1        0.0826
     15 N          61.9739   84.8915   11.5003 N.ar    1  UNL1       -0.2452
     16 C          62.6554   84.0745   12.5577 C.ar    1  UNL1        0.0833
     17 C          62.4278   82.5934   12.6240 C.ar    1  UNL1        0.0305
     18 C          63.1094   81.7764   13.6814 C.ar    1  UNL1        0.0592
     19 CL         62.8818   80.2953   13.7477 Cl      1  UNL1       -0.0822
     20 C          64.0185   82.4407   14.6725 C.ar    1  UNL1        0.0115
     21 C          64.2461   83.9218   14.6062 C.ar    1  UNL1        0.0036
     22 C          63.5646   84.7387   13.5488 C.ar    1  UNL1        0.0312
     23 C          63.7922   86.2199   13.4826 C.ar    1  UNL1        0.0513
     24 C          63.1106   87.0368   12.4251 C.ar    1  UNL1        0.0341
     25 C          63.3382   88.5180   12.3588 C.ar    1  UNL1        0.0396
     26 C          63.0257   91.4943    9.9048 C.3     1  UNL1        0.2525
     27 O          62.8843   90.8161   11.2351 O.3     1  UNL1       -0.4714
     28 C          65.6789   91.9591   15.0115 C.3     1  UNL1        0.1023
     29 N          66.2416   92.1526   13.6346 N.3     1  UNL1       -0.2664
     30 C          67.6744   91.8081   13.3547 C.3     1  UNL1        0.0899
     31 C          68.2371   92.0017   11.9778 C.3     1  UNL1        0.0897
     32 N          67.3670   92.5397   10.8808 N.3     1  UNL1       -0.2691
     33 C          65.9343   92.8842   11.1607 C.3     1  UNL1        0.0897
     34 C          65.3715   92.6907   12.5376 C.3     1  UNL1        0.0899
     35 C          67.9297   92.7333    9.5039 C.3     1  UNL1        0.0897
     36 C          68.3734   94.0956    9.0597 C.3     1  UNL1        0.0897
     37 N          67.3849   95.2218    8.9935 N.3     1  UNL1       -0.2691
     38 C          67.1003   96.0428   10.2163 C.3     1  UNL1        0.0897
     39 C          66.6809   95.5271    7.7047 C.3     1  UNL1        0.0897
@<TRIPOS>BOND
     1    26    27    1
     2    27    11    1
     3    11    12   ar
     4    12    13   ar
     5    13    14   ar
     6    14    15   ar
     7    15    16   ar
     8    16    17   ar
     9    17    18   ar
    10    18    19    1
    11    18    20   ar
    12    20    21   ar
    13    21    22   ar
    14    22    23   ar
    15    23     9    1
    16     9     1    1
    17     1     2   ar
    18     2     3   ar
    19     3     4   ar
    20     4     5    1
    21     4     6   ar
    22     6    28    1
    23    28    29    1
    24    29    30    1
    25    30    31    1
    26    31    32    1
    27    32    35    1
    28    35    36    1
    29    36    37    1
    30    37    38    1
    31    37    39    1
    32    32    33    1
    33    33    34    1
    34     6     7   ar
    35    23    24   ar
    36    24    25   ar
    37    25    11   ar
    38    24    14   ar
    39    22    16   ar
    40     7     1   ar
    41    34    29    1
    42     9    10    1
    43     5     8    1
@<TRIPOS>MOLECULE
*****
 39 43 0 0 0
SMALL
GASTEIGER

@<TRIPOS>ATOM
      1 C          63.4319   89.6124   15.3316 C.ar    1  UNL1        0.0482
      2 C          62.7891   89.3584   16.6628 C.ar    1  UNL1        0.0177
      3 C          62.8735   87.9979   17.2890 C.ar    1  UNL1        0.0376
      4 C          63.6007   86.8916   16.5840 C.ar    1  UNL1        0.1310
      5 O          63.6851   85.5311   17.2102 O.3     1  UNL1       -0.5058
      6 C          64.2436   87.1456   15.2527 C.ar    1  UNL1        0.0288
      7 C          64.1592   88.5061   14.6265 C.ar    1  UNL1        0.0147
      8 H          63.2835   85.3724   18.0418 H       1  UNL1        0.2922
      9 N          63.3475   90.9729   14.7055 N.pl3   1  UNL1       -0.3125
     10 H          63.0781   91.7488   15.2483 H       1  UNL1        0.1522
     11 C          67.1811   92.9924   13.4910 C.ar    1  UNL1        0.1389
     12 C          67.5072   93.1707   12.0378 C.ar    1  UNL1        0.0384
     13 C          66.5554   92.6758   10.9894 C.ar    1  UNL1        0.0223
     14 C          65.2776   92.0027   11.3942 C.ar    1  UNL1        0.0826
     15 N          64.3258   91.5078   10.3458 N.ar    1  UNL1       -0.2452
     16 C          63.0479   90.8346   10.7506 C.ar    1  UNL1        0.0833
     17 C          62.0961   90.3397    9.7021 C.ar    1  UNL1        0.0305
     18 C          60.8182   89.6665   10.1070 C.ar    1  UNL1        0.0592
     19 CL         59.8665   89.1716    9.0586 Cl      1  UNL1       -0.0822
     20 C          60.4922   89.4882   11.5602 C.ar    1  UNL1        0.0115
     21 C          61.4440   89.9831   12.6086 C.ar    1  UNL1        0.0036
     22 C          62.7218   90.6563   12.2038 C.ar    1  UNL1        0.0312
     23 C          63.6736   91.1512   13.2522 C.ar    1  UNL1        0.0513
     24 C          64.9515   91.8244   12.8474 C.ar    1  UNL1        0.0341
     25 C          65.9033   92.3193   13.8958 C.ar    1  UNL1        0.0396
     26 C          68.5290   92.5917   15.6756 C.3     1  UNL1        0.2525
     27 O          68.1329   93.4873   14.5395 O.3     1  UNL1       -0.4714
     28 C          64.9708   86.0393   14.5477 C.3     1  UNL1        0.1023
     29 N          64.2333   84.7992   14.1375 N.3     1  UNL1       -0.2664
     30 C          63.1329   84.8824   13.1214 C.3     1  UNL1        0.0899
     31 C          62.3955   83.6422   12.7113 C.3     1  UNL1        0.0897
     32 N          62.7584   82.3189   13.3172 N.3     1  UNL1       -0.2691
     33 C          63.8587   82.2357   14.3332 C.3     1  UNL1        0.0897
     34 C          64.5962   83.4758   14.7434 C.3     1  UNL1        0.0899
     35 C          62.0210   81.0788   12.9070 C.3     1  UNL1        0.0897
     36 C          62.7131   80.0317   12.0856 C.3     1  UNL1        0.0897
     37 N          63.0631   80.3116   10.6542 N.3     1  UNL1       -0.2691
     38 C          63.7350   81.6008   10.2846 C.3     1  UNL1        0.0897
     39 C          62.7414   79.3022    9.5922 C.3     1  UNL1        0.0897
@<TRIPOS>BOND
     1    26    27    1
     2    27    11    1
     3    11    12   ar
     4    12    13   ar
     5    13    14   ar
     6    14    15   ar
     7    15    16   ar
     8    16    17   ar
     9    17    18   ar
    10    18    19    1
    11    18    20   ar
    12    20    21   ar
    13    21    22   ar
    14    22    23   ar
    15    23     9    1
    16     9     1    1
    17     1     2   ar
    18     2     3   ar
    19     3     4   ar
    20     4     5    1
    21     4     6   ar
    22     6    28    1
    23    28    29    1
    24    29    30    1
    25    30    31    1
    26    31    32    1
    27    32    35    1
    28    35    36    1
    29    36    37    1
    30    37    38    1
    31    37    39    1
    32    32    33    1
    33    33    34    1
    34     6     7   ar
    35    23    24   ar
    36    24    25   ar
    37    25    11   ar
    38    24    14   ar
    39    22    16   ar
    40     7     1   ar
    41    34    29    1
    42     9    10    1
    43     5     8    1
@<TRIPOS>MOLECULE
*****
 39 43 0 0 0
SMALL
GASTEIGER

@<TRIPOS>ATOM
      1 C          63.3991   89.4977   15.7707 C.ar    1  UNL1        0.0482
      2 C          62.7672   89.0627   17.0597 C.ar    1  UNL1        0.0177
      3 C          62.8277   87.6230   17.4763 C.ar    1  UNL1        0.0376
      4 C          63.5202   86.6183   16.6039 C.ar    1  UNL1        0.1310
      5 O          63.5808   85.1786   17.0205 O.3     1  UNL1       -0.5058
      6 C          64.1521   87.0533   15.3149 C.ar    1  UNL1        0.0288
      7 C          64.0916   88.4930   14.8983 C.ar    1  UNL1        0.0147
      8 H          63.1860   84.9069   17.8257 H       1  UNL1        0.2922
      9 N          63.3385   90.9374   15.3541 N.pl3   1  UNL1       -0.3125
     10 H          62.7001   91.5488   15.7875 H       1  UNL1        0.1522
     11 C          62.1264   90.5982   11.0337 C.ar    1  UNL1        0.1389
     12 C          63.0385   91.1063    9.9568 C.ar    1  UNL1        0.0384
     13 C          64.3546   91.7276   10.3200 C.ar    1  UNL1        0.0223
     14 C          64.7587   91.8406   11.7600 C.ar    1  UNL1        0.0826
     15 N          66.0748   92.4619   12.1232 N.ar    1  UNL1       -0.2452
     16 C          66.4788   92.5750   13.5633 C.ar    1  UNL1        0.0833
     17 C          67.7949   93.1962   13.9265 C.ar    1  UNL1        0.0305
     18 C          68.1990   93.3093   15.3667 C.ar    1  UNL1        0.0592
     19 CL         69.5151   93.9305   15.7298 Cl      1  UNL1       -0.0822
     20 C          67.2869   92.8011   16.4436 C.ar    1  UNL1        0.0115
     21 C          65.9707   92.1799   16.0804 C.ar    1  UNL1        0.0036
     22 C          65.5667   92.0668   14.6403 C.ar    1  UNL1        0.0312
     23 C          64.2506   91.4456   14.2772 C.ar    1  UNL1        0.0513
     24 C          63.8466   91.3325   12.8370 C.ar    1  UNL1        0.0341
     25 C          62.5304   90.7113   12.4738 C.ar    1  UNL1        0.0396
     26 C          59.5340   90.5604   11.2002 C.3     1  UNL1        0.2525
     27 O          60.8103   89.9769   10.6706 O.3     1  UNL1       -0.4714
     28 C          64.8446   86.0486   14.4426 C.3     1  UNL1        0.1023
     29 N          64.1415   84.7820   14.0537 N.3     1  UNL1       -0.2664
     30 C          64.5575   83.4758   14.6628 C.3     1  UNL1        0.0899
     31 C          63.8544   82.2092   14.2740 C.3     1  UNL1        0.0897
     32 N          62.7353   82.2486   13.2760 N.3     1  UNL1       -0.2691
     33 C          62.3192   83.5547   12.6669 C.3     1  UNL1        0.0897
     34 C          63.0223   84.8214   13.0558 C.3     1  UNL1        0.0899
     35 C          62.0321   80.9820   12.8872 C.3     1  UNL1        0.0897
     36 C          62.7450   79.9511   12.0629 C.3     1  UNL1        0.0897
     37 N          63.0728   80.2346   10.6270 N.3     1  UNL1       -0.2691
     38 C          63.7050   81.5404   10.2456 C.3     1  UNL1        0.0897
     39 C          62.7684   79.2124    9.5722 C.3     1  UNL1        0.0897
@<TRIPOS>BOND
     1    26    27    1
     2    27    11    1
     3    11    12   ar
     4    12    13   ar
     5    13    14   ar
     6    14    15   ar
     7    15    16   ar
     8    16    17   ar
     9    17    18   ar
    10    18    19    1
    11    18    20   ar
    12    20    21   ar
    13    21    22   ar
    14    22    23   ar
    15    23     9    1
    16     9     1    1
    17     1     2   ar
    18     2     3   ar
    19     3     4   ar
    20     4     5    1
    21     4     6   ar
    22     6    28    1
    23    28    29    1
    24    29    30    1
    25    30    31    1
    26    31    32    1
    27    32    35    1
    28    35    36    1
    29    36    37    1
    30    37    38    1
    31    37    39    1
    32    32    33    1
    33    33    34    1
    34     6     7   ar
    35    23    24   ar
    36    24    25   ar
    37    25    11   ar
    38    24    14   ar
    39    22    16   ar
    40     7     1   ar
    41    34    29    1
    42     9    10    1
    43     5     8    1
@<TRIPOS>MOLECULE
*****
 39 43 0 0 0
SMALL
GASTEIGER

@<TRIPOS>ATOM
      1 C          62.7874   86.5920   11.6213 C.ar    1  UNL1        0.0482
      2 C          61.7961   85.7880   10.8334 C.ar    1  UNL1        0.0177
      3 C          60.7795   86.4822    9.9764 C.ar    1  UNL1        0.0376
      4 C          60.7541   87.9803    9.9073 C.ar    1  UNL1        0.1310
      5 O          59.7374   88.6745    9.0503 O.3     1  UNL1       -0.5058
      6 C          61.7454   88.7844   10.6953 C.ar    1  UNL1        0.0288
      7 C          62.7621   88.0902   11.5523 C.ar    1  UNL1        0.0147
      8 H          59.1182   88.1723    8.5581 H       1  UNL1        0.2922
      9 N          63.8041   85.8978   12.4784 N.pl3   1  UNL1       -0.3125
     10 H          64.7645   86.0434   12.3185 H       1  UNL1        0.1522
     11 C          63.1727   87.5110   16.6315 C.ar    1  UNL1        0.1389
     12 C          62.7260   86.5949   17.7320 C.ar    1  UNL1        0.0384
     13 C          62.4898   85.1410   17.4482 C.ar    1  UNL1        0.0223
     14 C          62.7003   84.6033   16.0639 C.ar    1  UNL1        0.0826
     15 N          62.4640   83.1495   15.7800 N.ar    1  UNL1       -0.2452
     16 C          62.6745   82.6117   14.3957 C.ar    1  UNL1        0.0833
     17 C          62.4383   81.1579   14.1118 C.ar    1  UNL1        0.0305
     18 C          62.6488   80.6202   12.7274 C.ar    1  UNL1        0.0592
     19 CL         62.4126   79.1663   12.4436 Cl      1  UNL1       -0.0822
     20 C          63.0955   81.5363   11.6269 C.ar    1  UNL1        0.0115
     21 C          63.3317   82.9901   11.9107 C.ar    1  UNL1        0.0036
     22 C          63.1212   83.5278   13.2951 C.ar    1  UNL1        0.0312
     23 C          63.3574   84.9817   13.5789 C.ar    1  UNL1        0.0513
     24 C          63.1469   85.5194   14.9633 C.ar    1  UNL1        0.0341
     25 C          63.3831   86.9732   15.2472 C.ar    1  UNL1        0.0396
     26 C          63.4971   89.9453   15.7836 C.3     1  UNL1        0.2525
     27 O          63.4089   88.9648   16.9154 O.3     1  UNL1       -0.4714
     28 C          61.7201   90.2826   10.6262 C.3     1  UNL1        0.1023
     29 N          62.9122   91.0743   11.0754 N.3     1  UNL1       -0.2664
     30 C          63.3159   91.0677   12.5201 C.3     1  UNL1        0.0899
     31 C          64.5080   91.8595   12.9694 C.3     1  UNL1        0.0897
     32 N          65.2966   92.6578   11.9739 N.3     1  UNL1       -0.2691
     33 C          64.8930   92.6645   10.5293 C.3     1  UNL1        0.0897
     34 C          63.7007   91.8727   10.0800 C.3     1  UNL1        0.0899
     35 C          66.4887   93.4496   12.4232 C.3     1  UNL1        0.0897
     36 C          66.6529   93.8012   13.8722 C.3     1  UNL1        0.0897
     37 N          67.3470   92.8495   14.8008 N.3     1  UNL1       -0.2691
     38 C          66.9317   92.7688   16.2400 C.3     1  UNL1        0.0897
     39 C          68.4565   91.9785   14.2905 C.3     1  UNL1        0.0897
@<TRIPOS>BOND
     1    26    27    1
     2    27    11    1
     3    11    12   ar
     4    12    13   ar
     5    13    14   ar
     6    14    15   ar
     7    15    16   ar
     8    16    17   ar
     9    17    18   ar
    10    18    19    1
    11    18    20   ar
    12    20    21   ar
    13    21    22   ar
    14    22    23   ar
    15    23     9    1
    16     9     1    1
    17     1     2   ar
    18     2     3   ar
    19     3     4   ar
    20     4     5    1
    21     4     6   ar
    22     6    28    1
    23    28    29    1
    24    29    30    1
    25    30    31    1
    26    31    32    1
    27    32    35    1
    28    35    36    1
    29    36    37    1
    30    37    38    1
    31    37    39    1
    32    32    33    1
    33    33    34    1
    34     6     7   ar
    35    23    24   ar
    36    24    25   ar
    37    25    11   ar
    38    24    14   ar
    39    22    16   ar
    40     7     1   ar
    41    34    29    1
    42     9    10    1
    43     5     8    1
@<TRIPOS>MOLECULE
*****
 39 43 0 0 0
SMALL
GASTEIGER

@<TRIPOS>ATOM
      1 C          63.5318   89.8315   15.0205 C.ar    1  UNL1        0.0482
      2 C          62.8372   89.6527   16.3379 C.ar    1  UNL1        0.0177
      3 C          62.8633   88.3195   17.0248 C.ar    1  UNL1        0.0376
      4 C          63.5840   87.1650   16.3943 C.ar    1  UNL1        0.1310
      5 O          63.6101   85.8317   17.0811 O.3     1  UNL1       -0.5058
      6 C          64.2786   87.3437   15.0768 C.ar    1  UNL1        0.0288
      7 C          64.2525   88.6769   14.3899 C.ar    1  UNL1        0.0147
      8 H          63.1762   85.7201   17.9041 H       1  UNL1        0.2922
      9 N          63.5057   91.1647   14.3337 N.pl3   1  UNL1       -0.3125
     10 H          63.4559   91.9916   14.8657 H       1  UNL1        0.1522
     11 C          60.3893   89.0479   11.8725 C.ar    1  UNL1        0.1389
     12 C          60.4391   89.1213   10.3752 C.ar    1  UNL1        0.0384
     13 C          61.5276   89.9003    9.6982 C.ar    1  UNL1        0.0223
     14 C          62.5664   90.6059   10.5186 C.ar    1  UNL1        0.0826
     15 N          63.6549   91.3848    9.8416 N.ar    1  UNL1       -0.2452
     16 C          64.6937   92.0904   10.6619 C.ar    1  UNL1        0.0833
     17 C          65.7822   92.8694    9.9849 C.ar    1  UNL1        0.0305
     18 C          66.8210   93.5750   10.8054 C.ar    1  UNL1        0.0592
     19 CL         67.9095   94.3540   10.1284 Cl      1  UNL1       -0.0822
     20 C          66.7713   93.5016   12.3027 C.ar    1  UNL1        0.0115
     21 C          65.6827   92.7226   12.9797 C.ar    1  UNL1        0.0036
     22 C          64.6439   92.0171   12.1594 C.ar    1  UNL1        0.0312
     23 C          63.5554   91.2381   12.8363 C.ar    1  UNL1        0.0513
     24 C          62.5166   90.5325   12.0159 C.ar    1  UNL1        0.0341
     25 C          61.4281   89.7535   12.6929 C.ar    1  UNL1        0.0396
     26 C          58.0885   88.9774   13.0773 C.3     1  UNL1        0.2525
     27 O          59.3008   88.2689   12.5495 O.3     1  UNL1       -0.4714
     28 C          64.9993   86.1891   14.4463 C.3     1  UNL1        0.1023
     29 N          64.2439   84.9496   14.0683 N.3     1  UNL1       -0.2664
     30 C          63.1608   85.0179   13.0326 C.3     1  UNL1        0.0899
     31 C          62.4054   83.7784   12.6546 C.3     1  UNL1        0.0897
     32 N          62.7329   82.4706   13.3122 N.3     1  UNL1       -0.2691
     33 C          63.8159   82.4023   14.3478 C.3     1  UNL1        0.0897
     34 C          64.5714   83.6419   14.7259 C.3     1  UNL1        0.0899
     35 C          61.9774   81.2312   12.9342 C.3     1  UNL1        0.0897
     36 C          62.6571   80.1487   12.1491 C.3     1  UNL1        0.0897
     37 N          63.0434   80.3887   10.7197 N.3     1  UNL1       -0.2691
     38 C          63.7033   81.6774   10.3274 C.3     1  UNL1        0.0897
     39 C          62.7698   79.3401    9.6826 C.3     1  UNL1        0.0897
@<TRIPOS>BOND
     1    26    27    1
     2    27    11    1
     3    11    12   ar
     4    12    13   ar
     5    13    14   ar
     6    14    15   ar
     7    15    16   ar
     8    16    17   ar
     9    17    18   ar
    10    18    19    1
    11    18    20   ar
    12    20    21   ar
    13    21    22   ar
    14    22    23   ar
    15    23     9    1
    16     9     1    1
    17     1     2   ar
    18     2     3   ar
    19     3     4   ar
    20     4     5    1
    21     4     6   ar
    22     6    28    1
    23    28    29    1
    24    29    30    1
    25    30    31    1
    26    31    32    1
    27    32    35    1
    28    35    36    1
    29    36    37    1
    30    37    38    1
    31    37    39    1
    32    32    33    1
    33    33    34    1
    34     6     7   ar
    35    23    24   ar
    36    24    25   ar
    37    25    11   ar
    38    24    14   ar
    39    22    16   ar
    40     7     1   ar
    41    34    29    1
    42     9    10    1
    43     5     8    1
@<TRIPOS>MOLECULE
*****
 39 43 0 0 0
SMALL
GASTEIGER

@<TRIPOS>ATOM
      1 C          63.2624   89.0744   16.0420 C.ar    1  UNL1        0.0482
      2 C          62.4975   88.5691   17.2292 C.ar    1  UNL1        0.0177
      3 C          62.5051   87.1057   17.5587 C.ar    1  UNL1        0.0376
      4 C          63.2775   86.1478   16.7011 C.ar    1  UNL1        0.1310
      5 O          63.2850   84.6844   17.0306 O.3     1  UNL1       -0.5058
      6 C          64.0424   86.6531   15.5138 C.ar    1  UNL1        0.0288
      7 C          64.0349   88.1165   15.1842 C.ar    1  UNL1        0.0147
      8 H          62.8072   84.3687   17.7722 H       1  UNL1        0.2922
      9 N          63.2549   90.5378   15.7124 N.pl3   1  UNL1       -0.3125
     10 H          62.7361   91.1645   16.2668 H       1  UNL1        0.1522
     11 C          61.6200   90.0712   11.5459 C.ar    1  UNL1        0.1389
     12 C          62.4029   90.5796   10.3718 C.ar    1  UNL1        0.0384
     13 C          63.7307   91.2435   10.5865 C.ar    1  UNL1        0.0223
     14 C          64.2757   91.3991   11.9753 C.ar    1  UNL1        0.0826
     15 N          65.6035   92.0630   12.1900 N.ar    1  UNL1       -0.2452
     16 C          66.1484   92.2186   13.5788 C.ar    1  UNL1        0.0833
     17 C          67.4762   92.8825   13.7935 C.ar    1  UNL1        0.0305
     18 C          68.0211   93.0380   15.1824 C.ar    1  UNL1        0.0592
     19 CL         69.3490   93.7020   15.3970 Cl      1  UNL1       -0.0822
     20 C          67.2383   92.5296   16.3565 C.ar    1  UNL1        0.0115
     21 C          65.9105   91.8657   16.1418 C.ar    1  UNL1        0.0036
     22 C          65.3655   91.7101   14.7530 C.ar    1  UNL1        0.0312
     23 C          64.0377   91.0462   14.5383 C.ar    1  UNL1        0.0513
     24 C          63.4928   90.8907   13.1494 C.ar    1  UNL1        0.0341
     25 C          62.1650   90.2267   12.9347 C.ar    1  UNL1        0.0396
     26 C          60.2320   88.0010   10.8129 C.3     1  UNL1        0.2525
     27 O          60.2922   89.4072   11.3313 O.3     1  UNL1       -0.4714
     28 C          64.8148   85.6952   14.6561 C.3     1  UNL1        0.1023
     29 N          64.2604   85.2590   13.3324 N.3     1  UNL1       -0.2664
     30 C          64.7002   83.9591   12.7266 C.3     1  UNL1        0.0899
     31 C          64.1457   83.5229   11.4029 C.3     1  UNL1        0.0897
     32 N          63.1515   84.3865   10.6849 N.3     1  UNL1       -0.2691
     33 C          62.7117   85.6864   11.2906 C.3     1  UNL1        0.0897
     34 C          63.2661   86.1226   12.6144 C.3     1  UNL1        0.0899
     35 C          62.5970   83.9504    9.3611 C.3     1  UNL1        0.0897
     36 C          62.8558   84.7710    8.1324 C.3     1  UNL1        0.0897
     37 N          61.7509   85.0168    7.1483 N.3     1  UNL1       -0.2691
     38 C          61.8025   84.3841    5.7892 C.3     1  UNL1        0.0897
     39 C          60.5943   85.8953    7.5231 C.3     1  UNL1        0.0897
@<TRIPOS>BOND
     1    26    27    1
     2    27    11    1
     3    11    12   ar
     4    12    13   ar
     5    13    14   ar
     6    14    15   ar
     7    15    16   ar
     8    16    17   ar
     9    17    18   ar
    10    18    19    1
    11    18    20   ar
    12    20    21   ar
    13    21    22   ar
    14    22    23   ar
    15    23     9    1
    16     9     1    1
    17     1     2   ar
    18     2     3   ar
    19     3     4   ar
    20     4     5    1
    21     4     6   ar
    22     6    28    1
    23    28    29    1
    24    29    30    1
    25    30    31    1
    26    31    32    1
    27    32    35    1
    28    35    36    1
    29    36    37    1
    30    37    38    1
    31    37    39    1
    32    32    33    1
    33    33    34    1
    34     6     7   ar
    35    23    24   ar
    36    24    25   ar
    37    25    11   ar
    38    24    14   ar
    39    22    16   ar
    40     7     1   ar
    41    34    29    1
    42     9    10    1
    43     5     8    1
