@<TRIPOS>MOLECULE
*****
 32 36 0 0 0
SMALL
GASTEIGER

@<TRIPOS>ATOM
      1 C          62.7833   86.7957   11.9278 C.2     1  UNL1        0.2506
      2 O          63.5894   87.4114   13.0328 O.2     1  UNL1       -0.2699
      3 N          61.8084   87.6330   11.1544 N.am    1  UNL1       -0.2723
      4 C          61.0023   87.0173   10.0493 C.3     1  UNL1        0.1257
      5 C          60.0273   87.8547    9.2759 C.3     1  UNL1        0.1637
      6 O          59.8583   89.3078    9.6075 O.3     1  UNL1       -0.3502
      7 C          60.6644   89.9235   10.7126 C.3     1  UNL1        0.1622
      8 C          61.6394   89.0861   11.4860 C.3     1  UNL1        0.1096
      9 C          63.4591   80.9833   10.6013 C.3     1  UNL1        0.0311
     10 C          63.2902   82.4364   10.9329 C.ar    1  UNL1       -0.0203
     11 C          63.1551   83.4462    9.8320 C.ar    1  UNL1       -0.0040
     12 C          62.9862   84.8993   10.1636 C.ar    1  UNL1        0.0058
     13 C          62.9523   85.3426   11.5962 C.ar    1  UNL1        0.0729
     14 C          63.0873   84.3328   12.6971 C.ar    1  UNL1        0.1069
     15 C          63.2563   82.8797   12.3655 C.ar    1  UNL1        0.0168
     16 N          63.0534   84.7761   14.1298 N.ar    1  UNL1       -0.1477
     17 N          64.2185   85.2933   14.9204 N.ar    1  UNL1       -0.1447
     18 C          63.7337   85.6169   16.3025 C.ar    1  UNL1        0.1446
     19 C          62.2690   85.2997   16.3661 C.ar    1  UNL1        0.1446
     20 N          61.8486   84.7801   15.0232 N.ar    1  UNL1       -0.1447
     21 C          62.4454   89.7019   12.5911 C.3     1  UNL1        0.0488
     22 C          63.5446   90.6701   12.2679 C.ar    1  UNL1       -0.0189
     23 C          63.6312   91.2768   10.8988 C.ar    1  UNL1       -0.0041
     24 C          64.7303   92.2450   10.5757 C.ar    1  UNL1        0.0013
     25 C          65.7429   92.6065   11.6216 C.ar    1  UNL1        0.0209
     26 C          65.6563   91.9998   12.9906 C.ar    1  UNL1        0.1026
     27 C          64.5572   91.0316   13.3138 C.ar    1  UNL1        0.0167
     28 N          66.6690   92.3613   14.0366 N.ar    1  UNL1       -0.1478
     29 N          68.1592   92.3300   13.8691 N.ar    1  UNL1       -0.1447
     30 C          68.7803   92.7669   15.1627 C.ar    1  UNL1        0.1446
     31 C          67.6739   93.0682   16.1297 C.ar    1  UNL1        0.1446
     32 N          66.3690   92.8175   15.4337 N.ar    1  UNL1       -0.1447
@<TRIPOS>BOND
     1     9    10    1
     2    10    11   ar
     3    11    12   ar
     4    12    13   ar
     5    13     1    1
     6     1     2    2
     7     1     3   am
     8     3     4    1
     9     4     5    1
    10     5     6    1
    11     6     7    1
    12     7     8    1
    13     8    21    1
    14    21    22    1
    15    22    23   ar
    16    23    24   ar
    17    24    25   ar
    18    25    26   ar
    19    26    28    1
    20    28    29   ar
    21    29    30   ar
    22    30    31   ar
    23    31    32   ar
    24    26    27   ar
    25    13    14   ar
    26    14    16    1
    27    16    17   ar
    28    17    18   ar
    29    18    19   ar
    30    19    20   ar
    31    14    15   ar
    32    15    10   ar
    33     8     3    1
    34    27    22   ar
    35    20    16   ar
    36    32    28   ar
@<TRIPOS>MOLECULE
*****
 32 36 0 0 0
SMALL
GASTEIGER

@<TRIPOS>ATOM
      1 C          63.0882   87.1073   12.4874 C.2     1  UNL1        0.2506
      2 O          63.6830   87.5204   13.8010 O.2     1  UNL1       -0.2699
      3 N          62.4627   88.1347   11.5912 N.am    1  UNL1       -0.2723
      4 C          61.8678   87.7216   10.2775 C.3     1  UNL1        0.1257
      5 C          61.2423   88.7490    9.3813 C.3     1  UNL1        0.1637
      6 O          61.2117   90.1894    9.7987 O.3     1  UNL1       -0.3502
      7 C          61.8065   90.6025   11.1123 C.3     1  UNL1        0.1622
      8 C          62.4320   89.5751   12.0086 C.3     1  UNL1        0.1096
      9 C          63.2109   81.3456   10.8179 C.3     1  UNL1        0.0311
     10 C          63.1802   82.7860   11.2353 C.ar    1  UNL1       -0.0203
     11 C          63.1880   83.8681   10.1966 C.ar    1  UNL1       -0.0040
     12 C          63.1573   85.3086   10.6140 C.ar    1  UNL1        0.0058
     13 C          63.1189   85.6669   12.0700 C.ar    1  UNL1        0.0729
     14 C          63.1111   84.5848   13.1087 C.ar    1  UNL1        0.1069
     15 C          63.1418   83.1443   12.6913 C.ar    1  UNL1        0.0168
     16 N          63.0727   84.9430   14.5648 N.ar    1  UNL1       -0.1477
     17 N          61.8494   84.9781   15.4322 N.ar    1  UNL1       -0.1447
     18 C          62.2715   85.3859   16.8126 C.ar    1  UNL1        0.1446
     19 C          63.7557   85.6028   16.7984 C.ar    1  UNL1        0.1446
     20 N          64.2508   85.3292   15.4092 N.ar    1  UNL1       -0.1447
     21 C          63.0269   89.9882   13.3221 C.3     1  UNL1        0.0488
     22 C          64.3210   90.7459   13.3543 C.ar    1  UNL1       -0.0189
     23 C          65.2506   90.5933   14.5215 C.ar    1  UNL1       -0.0041
     24 C          66.5448   91.3510   14.5536 C.ar    1  UNL1        0.0013
     25 C          66.9093   92.2613   13.4185 C.ar    1  UNL1        0.0209
     26 C          65.9797   92.4139   12.2513 C.ar    1  UNL1        0.1026
     27 C          64.6856   91.6562   12.2192 C.ar    1  UNL1        0.0167
     28 N          66.3442   93.3242   11.1161 N.ar    1  UNL1       -0.1478
     29 N          67.4878   93.1326   10.1646 N.ar    1  UNL1       -0.1447
     30 C          67.4795   94.2759    9.1936 C.ar    1  UNL1        0.1446
     31 C          66.3307   95.1741    9.5451 C.ar    1  UNL1        0.1446
     32 N          65.6291   94.5859   10.7332 N.ar    1  UNL1       -0.1447
@<TRIPOS>BOND
     1     9    10    1
     2    10    11   ar
     3    11    12   ar
     4    12    13   ar
     5    13     1    1
     6     1     2    2
     7     1     3   am
     8     3     4    1
     9     4     5    1
    10     5     6    1
    11     6     7    1
    12     7     8    1
    13     8    21    1
    14    21    22    1
    15    22    23   ar
    16    23    24   ar
    17    24    25   ar
    18    25    26   ar
    19    26    28    1
    20    28    29   ar
    21    29    30   ar
    22    30    31   ar
    23    31    32   ar
    24    26    27   ar
    25    13    14   ar
    26    14    16    1
    27    16    17   ar
    28    17    18   ar
    29    18    19   ar
    30    19    20   ar
    31    14    15   ar
    32    15    10   ar
    33     8     3    1
    34    27    22   ar
    35    20    16   ar
    36    32    28   ar
@<TRIPOS>MOLECULE
*****
 32 36 0 0 0
SMALL
GASTEIGER

@<TRIPOS>ATOM
      1 C          63.5349   87.5316   13.3432 C.2     1  UNL1        0.2506
      2 O          63.6958   88.5490   12.2529 O.2     1  UNL1       -0.2699
      3 N          63.4202   87.9748   14.7716 N.am    1  UNL1       -0.2723
      4 C          63.2593   86.9574   15.8621 C.3     1  UNL1        0.1257
      5 C          63.1447   87.4006   17.2905 C.3     1  UNL1        0.1637
      6 O          63.1910   88.8613   17.6285 O.3     1  UNL1       -0.3502
      7 C          63.3519   89.8787   16.5382 C.3     1  UNL1        0.1622
      8 C          63.4666   89.4355   15.1097 C.3     1  UNL1        0.1096
      9 C          63.3495   81.6889   11.9910 C.3     1  UNL1        0.0311
     10 C          63.3959   83.1496   12.3291 C.ar    1  UNL1       -0.0203
     11 C          64.2539   83.6304   13.4615 C.ar    1  UNL1       -0.0040
     12 C          64.3002   85.0911   13.7996 C.ar    1  UNL1        0.0058
     13 C          63.4885   86.0709   13.0052 C.ar    1  UNL1        0.0729
     14 C          62.6305   85.5900   11.8727 C.ar    1  UNL1        0.1069
     15 C          62.5842   84.1293   11.5347 C.ar    1  UNL1        0.0168
     16 N          61.8187   86.5698   11.0783 N.ar    1  UNL1       -0.1477
     17 N          62.0751   86.9810    9.6587 N.ar    1  UNL1       -0.1447
     18 C          61.0230   87.9757    9.2669 C.ar    1  UNL1        0.1446
     19 C          60.1163   88.1794   10.4445 C.ar    1  UNL1        0.1446
     20 N          60.6081   87.3105   11.5639 N.ar    1  UNL1       -0.1447
     21 C          63.6275   90.4529   14.0193 C.3     1  UNL1        0.0488
     22 C          64.9373   91.1623   13.8428 C.ar    1  UNL1       -0.0189
     23 C          66.0398   90.9605   14.8397 C.ar    1  UNL1       -0.0041
     24 C          67.3497   91.6699   14.6632 C.ar    1  UNL1        0.0013
     25 C          67.5570   92.5810   13.4898 C.ar    1  UNL1        0.0209
     26 C          66.4545   92.7828   12.4930 C.ar    1  UNL1        0.1026
     27 C          65.1447   92.0735   12.6695 C.ar    1  UNL1        0.0167
     28 N          66.6618   93.6940   11.3196 N.ar    1  UNL1       -0.1478
     29 N          67.6161   93.4671   10.1848 N.ar    1  UNL1       -0.1447
     30 C          67.4952   94.6249    9.2389 C.ar    1  UNL1        0.1446
     31 C          66.4662   95.5675    9.7891 C.ar    1  UNL1        0.1446
     32 N          65.9511   94.9922   11.0750 N.ar    1  UNL1       -0.1447
@<TRIPOS>BOND
     1     9    10    1
     2    10    11   ar
     3    11    12   ar
     4    12    13   ar
     5    13     1    1
     6     1     2    2
     7     1     3   am
     8     3     4    1
     9     4     5    1
    10     5     6    1
    11     6     7    1
    12     7     8    1
    13     8    21    1
    14    21    22    1
    15    22    23   ar
    16    23    24   ar
    17    24    25   ar
    18    25    26   ar
    19    26    28    1
    20    28    29   ar
    21    29    30   ar
    22    30    31   ar
    23    31    32   ar
    24    26    27   ar
    25    13    14   ar
    26    14    16    1
    27    16    17   ar
    28    17    18   ar
    29    18    19   ar
    30    19    20   ar
    31    14    15   ar
    32    15    10   ar
    33     8     3    1
    34    27    22   ar
    35    20    16   ar
    36    32    28   ar
@<TRIPOS>MOLECULE
*****
 32 36 0 0 0
SMALL
GASTEIGER

@<TRIPOS>ATOM
      1 C          62.7315   88.5571   11.6002 C.2     1  UNL1        0.2506
      2 O          62.7107   90.0566   11.5672 O.2     1  UNL1       -0.2699
      3 N          63.3608   87.8412   12.7583 N.am    1  UNL1       -0.2723
      4 C          63.3817   86.3416   12.7914 C.3     1  UNL1        0.1257
      5 C          64.0110   85.6257   13.9495 C.3     1  UNL1        0.1637
      6 O          64.6195   86.4092   15.0746 O.3     1  UNL1       -0.3502
      7 C          64.5987   87.9086   15.0416 C.3     1  UNL1        0.1622
      8 C          63.9693   88.6247   13.8834 C.3     1  UNL1        0.1096
      9 C          60.2975   85.4231    7.0998 C.3     1  UNL1        0.0311
     10 C          60.9060   86.2066    8.2249 C.ar    1  UNL1       -0.0203
     11 C          62.3493   86.0086    8.5821 C.ar    1  UNL1       -0.0040
     12 C          62.9578   86.7921    9.7072 C.ar    1  UNL1        0.0058
     13 C          62.1230   87.7736   10.4751 C.ar    1  UNL1        0.0729
     14 C          60.6797   87.9716   10.1179 C.ar    1  UNL1        0.1069
     15 C          60.0712   87.1881    8.9928 C.ar    1  UNL1        0.0168
     16 N          59.8449   88.9532   10.8858 N.ar    1  UNL1       -0.1477
     17 N          59.0870   88.6682   12.1485 N.ar    1  UNL1       -0.1447
     18 C          58.3951   89.9308   12.5689 C.ar    1  UNL1        0.1446
     19 C          58.7252   90.9963   11.5659 C.ar    1  UNL1        0.1446
     20 N          59.6212   90.3921   10.5257 N.ar    1  UNL1       -0.1447
     21 C          63.9485   90.1241   13.8504 C.3     1  UNL1        0.0488
     22 C          65.2356   90.8906   13.7740 C.ar    1  UNL1       -0.0189
     23 C          66.1830   90.8834   14.9370 C.ar    1  UNL1       -0.0041
     24 C          67.4701   91.6499   14.8606 C.ar    1  UNL1        0.0013
     25 C          67.8099   92.4235   13.6213 C.ar    1  UNL1        0.0209
     26 C          66.8626   92.4307   12.4583 C.ar    1  UNL1        0.1026
     27 C          65.5754   91.6642   12.5347 C.ar    1  UNL1        0.0167
     28 N          67.2023   93.2044   11.2189 N.ar    1  UNL1       -0.1478
     29 N          66.8810   94.6473   10.9645 N.ar    1  UNL1       -0.1447
     30 C          67.4032   95.0056    9.6047 C.ar    1  UNL1        0.1446
     31 C          68.0472   93.7841    9.0188 C.ar    1  UNL1        0.1446
     32 N          67.9231   92.6709   10.0164 N.ar    1  UNL1       -0.1447
@<TRIPOS>BOND
     1     9    10    1
     2    10    11   ar
     3    11    12   ar
     4    12    13   ar
     5    13     1    1
     6     1     2    2
     7     1     3   am
     8     3     4    1
     9     4     5    1
    10     5     6    1
    11     6     7    1
    12     7     8    1
    13     8    21    1
    14    21    22    1
    15    22    23   ar
    16    23    24   ar
    17    24    25   ar
    18    25    26   ar
    19    26    28    1
    20    28    29   ar
    21    29    30   ar
    22    30    31   ar
    23    31    32   ar
    24    26    27   ar
    25    13    14   ar
    26    14    16    1
    27    16    17   ar
    28    17    18   ar
    29    18    19   ar
    30    19    20   ar
    31    14    15   ar
    32    15    10   ar
    33     8     3    1
    34    27    22   ar
    35    20    16   ar
    36    32    28   ar
@<TRIPOS>MOLECULE
*****
 32 36 0 0 0
SMALL
GASTEIGER

@<TRIPOS>ATOM
      1 C          62.7366   89.0209   11.6203 C.2     1  UNL1        0.2506
      2 O          62.9369   87.8564   12.5443 O.2     1  UNL1       -0.2699
      3 N          61.6937   88.9537   10.5443 N.am    1  UNL1       -0.2723
      4 C          61.4934   90.1183    9.6202 C.3     1  UNL1        0.1257
      5 C          60.4505   90.0511    8.5442 C.3     1  UNL1        0.1637
      6 O          59.6079   88.8195    8.3923 O.3     1  UNL1       -0.3502
      7 C          59.8081   87.6551    9.3163 C.3     1  UNL1        0.1622
      8 C          60.8511   87.7222   10.3923 C.3     1  UNL1        0.1096
      9 C          66.1073   93.9473   12.2281 C.3     1  UNL1        0.0311
     10 C          65.2646   92.7157   12.0762 C.ar    1  UNL1       -0.0203
     11 C          64.7275   92.3361   10.7281 C.ar    1  UNL1       -0.0040
     12 C          63.8848   91.1045   10.5761 C.ar    1  UNL1        0.0058
     13 C          63.5793   90.2525   11.7722 C.ar    1  UNL1        0.0729
     14 C          64.1164   90.6321   13.1203 C.ar    1  UNL1        0.1069
     15 C          64.9591   91.8637   13.2723 C.ar    1  UNL1        0.0168
     16 N          63.8109   89.7801   14.3165 N.ar    1  UNL1       -0.1477
     17 N          64.5024   88.5019   14.6884 N.ar    1  UNL1       -0.1447
     18 C          63.8792   87.9885   15.9525 C.ar    1  UNL1        0.1446
     19 C          62.8025   88.9494   16.3619 C.ar    1  UNL1        0.1446
     20 N          62.7603   90.0566   15.3508 N.ar    1  UNL1       -0.1447
     21 C          61.0513   86.5577   11.3164 C.3     1  UNL1        0.0488
     22 C          61.9481   85.4252   10.9123 C.ar    1  UNL1       -0.0189
     23 C          62.6805   85.4784    9.6044 C.ar    1  UNL1       -0.0041
     24 C          63.5772   84.3459    9.2004 C.ar    1  UNL1        0.0013
     25 C          63.7416   83.1602   10.1042 C.ar    1  UNL1        0.0209
     26 C          63.0092   83.1070   11.4122 C.ar    1  UNL1        0.1026
     27 C          62.1124   84.2395   11.8162 C.ar    1  UNL1        0.0167
     28 N          63.1735   81.9212   12.3161 N.ar    1  UNL1       -0.1478
     29 N          64.0770   81.8418   13.5108 N.ar    1  UNL1       -0.1447
     30 C          63.9251   80.4783   14.1171 C.ar    1  UNL1        0.1446
     31 C          62.9276   79.7149   13.2971 C.ar    1  UNL1        0.1446
     32 N          62.4632   80.6067   12.1840 N.ar    1  UNL1       -0.1447
@<TRIPOS>BOND
     1     9    10    1
     2    10    11   ar
     3    11    12   ar
     4    12    13   ar
     5    13     1    1
     6     1     2    2
     7     1     3   am
     8     3     4    1
     9     4     5    1
    10     5     6    1
    11     6     7    1
    12     7     8    1
    13     8    21    1
    14    21    22    1
    15    22    23   ar
    16    23    24   ar
    17    24    25   ar
    18    25    26   ar
    19    26    28    1
    20    28    29   ar
    21    29    30   ar
    22    30    31   ar
    23    31    32   ar
    24    26    27   ar
    25    13    14   ar
    26    14    16    1
    27    16    17   ar
    28    17    18   ar
    29    18    19   ar
    30    19    20   ar
    31    14    15   ar
    32    15    10   ar
    33     8     3    1
    34    27    22   ar
    35    20    16   ar
    36    32    28   ar
@<TRIPOS>MOLECULE
*****
 32 36 0 0 0
SMALL
GASTEIGER

@<TRIPOS>ATOM
      1 C          63.4656   87.4607   13.1795 C.2     1  UNL1        0.2506
      2 O          63.4652   88.1144   11.8295 O.2     1  UNL1       -0.2699
      3 N          63.3796   88.3004   14.4194 N.am    1  UNL1       -0.2723
      4 C          63.3800   87.6467   15.7695 C.3     1  UNL1        0.1257
      5 C          63.2941   88.4864   17.0094 C.3     1  UNL1        0.1637
      6 O          63.2078   89.9799   16.8993 O.3     1  UNL1       -0.3502
      7 C          63.2074   90.6336   15.5493 C.3     1  UNL1        0.1622
      8 C          63.2933   89.7939   14.3093 C.3     1  UNL1        0.1096
      9 C          63.8108   81.4869   13.6199 C.3     1  UNL1        0.0311
     10 C          63.7245   82.9803   13.5098 C.ar    1  UNL1       -0.0203
     11 C          64.4029   83.8479   14.5281 C.ar    1  UNL1       -0.0040
     12 C          64.3166   85.3413   14.4180 C.ar    1  UNL1        0.0058
     13 C          63.5519   85.9672   13.2896 C.ar    1  UNL1        0.0729
     14 C          62.8734   85.0997   12.2713 C.ar    1  UNL1        0.1069
     15 C          62.9597   83.6062   12.3814 C.ar    1  UNL1        0.0168
     16 N          62.1086   85.7256   11.1428 N.ar    1  UNL1       -0.1477
     17 N          60.8837   86.5812   11.2755 N.ar    1  UNL1       -0.1447
     18 C          60.4525   86.9902    9.8983 C.ar    1  UNL1        0.1446
     19 C          61.4109   86.3873    8.9144 C.ar    1  UNL1        0.1446
     20 N          62.4344   85.6058    9.6835 N.ar    1  UNL1       -0.1447
     21 C          63.2930   90.4476   12.9593 C.3     1  UNL1        0.0488
     22 C          64.4179   91.3591   12.5670 C.ar    1  UNL1       -0.0189
     23 C          64.4776   91.9218   11.1779 C.ar    1  UNL1       -0.0041
     24 C          65.6025   92.8333   10.7856 C.ar    1  UNL1        0.0013
     25 C          66.6677   93.1819   11.7824 C.ar    1  UNL1        0.0209
     26 C          66.6080   92.6191   13.1715 C.ar    1  UNL1        0.1026
     27 C          65.4831   91.7077   13.5638 C.ar    1  UNL1        0.0167
     28 N          67.6733   92.9677   14.1684 N.ar    1  UNL1       -0.1478
     29 N          69.0889   92.4720   14.1557 N.ar    1  UNL1       -0.1447
     30 C          69.8004   93.0712   15.3325 C.ar    1  UNL1        0.1446
     31 C          68.8245   93.9372   16.0725 C.ar    1  UNL1        0.1446
     32 N          67.5098   93.8732   15.3531 N.ar    1  UNL1       -0.1447
@<TRIPOS>BOND
     1     9    10    1
     2    10    11   ar
     3    11    12   ar
     4    12    13   ar
     5    13     1    1
     6     1     2    2
     7     1     3   am
     8     3     4    1
     9     4     5    1
    10     5     6    1
    11     6     7    1
    12     7     8    1
    13     8    21    1
    14    21    22    1
    15    22    23   ar
    16    23    24   ar
    17    24    25   ar
    18    25    26   ar
    19    26    28    1
    20    28    29   ar
    21    29    30   ar
    22    30    31   ar
    23    31    32   ar
    24    26    27   ar
    25    13    14   ar
    26    14    16    1
    27    16    17   ar
    28    17    18   ar
    29    18    19   ar
    30    19    20   ar
    31    14    15   ar
    32    15    10   ar
    33     8     3    1
    34    27    22   ar
    35    20    16   ar
    36    32    28   ar
@<TRIPOS>MOLECULE
*****
 32 36 0 0 0
SMALL
GASTEIGER

@<TRIPOS>ATOM
      1 C          61.0779   86.7049   10.2250 C.2     1  UNL1        0.2506
      2 O          60.7035   86.8810   11.6668 O.2     1  UNL1       -0.2699
      3 N          62.0705   85.6516    9.8312 N.am    1  UNL1       -0.2723
      4 C          62.4450   85.4754    8.3893 C.3     1  UNL1        0.1257
      5 C          63.4376   84.4221    7.9955 C.3     1  UNL1        0.1637
      6 O          64.0558   83.5448    9.0434 O.3     1  UNL1       -0.3502
      7 C          63.6814   83.7209   10.4852 C.3     1  UNL1        0.1622
      8 C          62.6888   84.7743   10.8791 C.3     1  UNL1        0.1096
      9 C          58.6050   90.2140    6.0332 C.3     1  UNL1        0.0311
     10 C          59.2233   89.3367    7.0812 C.ar    1  UNL1       -0.0203
     11 C          58.9812   87.8566    7.0584 C.ar    1  UNL1       -0.0040
     12 C          59.5995   86.9793    8.1064 C.ar    1  UNL1        0.0058
     13 C          60.4597   87.5822    9.1771 C.ar    1  UNL1        0.0729
     14 C          60.7017   89.0623    9.1998 C.ar    1  UNL1        0.1069
     15 C          60.0835   89.9396    8.1519 C.ar    1  UNL1        0.0168
     16 N          61.5620   89.6653   10.2706 N.ar    1  UNL1       -0.1477
     17 N          61.1668   89.8818   11.7013 N.ar    1  UNL1       -0.1447
     18 C          62.3290   90.5078   12.4136 C.ar    1  UNL1        0.1446
     19 C          63.4425   90.6783   11.4230 C.ar    1  UNL1        0.1446
     20 N          62.9684   90.1575   10.0986 N.ar    1  UNL1       -0.1447
     21 C          62.3144   84.9503   12.3209 C.3     1  UNL1        0.0488
     22 C          63.3237   85.4736   13.2994 C.ar    1  UNL1       -0.0189
     23 C          64.3304   84.5432   13.9082 C.ar    1  UNL1       -0.0041
     24 C          65.3398   85.0665   14.8867 C.ar    1  UNL1        0.0013
     25 C          65.3424   86.5202   15.2563 C.ar    1  UNL1        0.0209
     26 C          64.3356   87.4506   14.6475 C.ar    1  UNL1        0.1026
     27 C          63.3263   86.9273   13.6690 C.ar    1  UNL1        0.0167
     28 N          64.3382   88.9044   15.0171 N.ar    1  UNL1       -0.1478
     29 N          65.2418   89.9574   14.4474 N.ar    1  UNL1       -0.1447
     30 C          64.8997   91.2642   15.0995 C.ar    1  UNL1        0.1446
     31 C          63.7845   91.0188   16.0723 C.ar    1  UNL1        0.1446
     32 N          63.4376   89.5604   16.0214 N.ar    1  UNL1       -0.1447
@<TRIPOS>BOND
     1     9    10    1
     2    10    11   ar
     3    11    12   ar
     4    12    13   ar
     5    13     1    1
     6     1     2    2
     7     1     3   am
     8     3     4    1
     9     4     5    1
    10     5     6    1
    11     6     7    1
    12     7     8    1
    13     8    21    1
    14    21    22    1
    15    22    23   ar
    16    23    24   ar
    17    24    25   ar
    18    25    26   ar
    19    26    28    1
    20    28    29   ar
    21    29    30   ar
    22    30    31   ar
    23    31    32   ar
    24    26    27   ar
    25    13    14   ar
    26    14    16    1
    27    16    17   ar
    28    17    18   ar
    29    18    19   ar
    30    19    20   ar
    31    14    15   ar
    32    15    10   ar
    33     8     3    1
    34    27    22   ar
    35    20    16   ar
    36    32    28   ar
@<TRIPOS>MOLECULE
*****
 32 36 0 0 0
SMALL
GASTEIGER

@<TRIPOS>ATOM
      1 C          65.0448   91.3009   12.7317 C.2     1  UNL1        0.2506
      2 O          65.8015   90.8675   13.9522 O.2     1  UNL1       -0.2699
      3 N          63.9415   90.4419   12.1890 N.am    1  UNL1       -0.2723
      4 C          63.1847   90.8753   10.9684 C.3     1  UNL1        0.1257
      5 C          62.0814   90.0163   10.4257 C.3     1  UNL1        0.1637
      6 O          61.7346   88.7239   11.1035 O.3     1  UNL1       -0.3502
      7 C          62.4913   88.2904   12.3239 C.3     1  UNL1        0.1622
      8 C          63.5947   89.1495   12.8667 C.3     1  UNL1        0.1096
      9 C          66.4318   96.4707   10.0207 C.3     1  UNL1        0.0311
     10 C          66.0851   95.1783   10.6984 C.ar    1  UNL1       -0.0203
     11 C          65.1693   94.2001   10.0244 C.ar    1  UNL1       -0.0040
     12 C          64.8225   92.9076   10.7021 C.ar    1  UNL1        0.0058
     13 C          65.3916   92.5934   12.0539 C.ar    1  UNL1        0.0729
     14 C          66.3074   93.5716   12.7280 C.ar    1  UNL1        0.1069
     15 C          66.6541   94.8641   12.0502 C.ar    1  UNL1        0.0168
     16 N          66.8765   93.2574   14.0799 N.ar    1  UNL1       -0.1477
     17 N          66.1148   93.2272   15.3718 N.ar    1  UNL1       -0.1447
     18 C          67.0747   92.8694   16.4675 C.ar    1  UNL1        0.1446
     19 C          68.4296   92.6784   15.8527 C.ar    1  UNL1        0.1446
     20 N          68.3070   92.9182   14.3771 N.ar    1  UNL1       -0.1447
     21 C          64.3513   88.7160   14.0872 C.3     1  UNL1        0.0488
     22 C          63.9563   87.4615   14.8083 C.ar    1  UNL1       -0.0189
     23 C          63.4676   87.5327   16.2246 C.ar    1  UNL1       -0.0041
     24 C          63.0726   86.2782   16.9458 C.ar    1  UNL1        0.0013
     25 C          63.1663   84.9523   16.2505 C.ar    1  UNL1        0.0209
     26 C          63.6550   84.8811   14.8342 C.ar    1  UNL1        0.1026
     27 C          64.0500   86.1357   14.1131 C.ar    1  UNL1        0.0167
     28 N          63.7487   83.5552   14.1389 N.ar    1  UNL1       -0.1478
     29 N          63.2757   82.2394   14.6821 N.ar    1  UNL1       -0.1447
     30 C          63.5665   81.1834   13.6572 C.ar    1  UNL1        0.1446
     31 C          64.2192   81.8466   12.4806 C.ar    1  UNL1        0.1446
     32 N          64.3318   83.3124   12.7784 N.ar    1  UNL1       -0.1447
@<TRIPOS>BOND
     1     9    10    1
     2    10    11   ar
     3    11    12   ar
     4    12    13   ar
     5    13     1    1
     6     1     2    2
     7     1     3   am
     8     3     4    1
     9     4     5    1
    10     5     6    1
    11     6     7    1
    12     7     8    1
    13     8    21    1
    14    21    22    1
    15    22    23   ar
    16    23    24   ar
    17    24    25   ar
    18    25    26   ar
    19    26    28    1
    20    28    29   ar
    21    29    30   ar
    22    30    31   ar
    23    31    32   ar
    24    26    27   ar
    25    13    14   ar
    26    14    16    1
    27    16    17   ar
    28    17    18   ar
    29    18    19   ar
    30    19    20   ar
    31    14    15   ar
    32    15    10   ar
    33     8     3    1
    34    27    22   ar
    35    20    16   ar
    36    32    28   ar
@<TRIPOS>MOLECULE
*****
 32 36 0 0 0
SMALL
GASTEIGER

@<TRIPOS>ATOM
      1 C          64.0661   84.9923   14.1787 C.2     1  UNL1        0.2506
      2 O          65.1416   85.7229   13.4307 O.2     1  UNL1       -0.2699
      3 N          63.3940   85.6426   15.3514 N.am    1  UNL1       -0.2723
      4 C          62.3185   84.9120   16.0994 C.3     1  UNL1        0.1257
      5 C          61.6463   85.5623   17.2721 C.3     1  UNL1        0.1637
      6 O          62.0496   86.9432   17.6968 O.3     1  UNL1       -0.3502
      7 C          63.1251   87.6738   16.9489 C.3     1  UNL1        0.1622
      8 C          63.7973   87.0235   15.7761 C.3     1  UNL1        0.1096
      9 C          62.4530   79.4686   12.4798 C.3     1  UNL1        0.0311
     10 C          62.8563   80.8495   12.9045 C.ar    1  UNL1       -0.0203
     11 C          63.6407   81.0466   14.1678 C.ar    1  UNL1       -0.0040
     12 C          64.0440   82.4275   14.5925 C.ar    1  UNL1        0.0058
     13 C          63.6629   83.6114   13.7540 C.ar    1  UNL1        0.0729
     14 C          62.8785   83.4143   12.4907 C.ar    1  UNL1        0.1069
     15 C          62.4752   82.0334   12.0660 C.ar    1  UNL1        0.0168
     16 N          62.4973   84.5982   11.6521 N.ar    1  UNL1       -0.1477
     17 N          62.8947   84.8322   10.2247 N.ar    1  UNL1       -0.1447
     18 C          62.2949   86.1345    9.7841 C.ar    1  UNL1        0.1446
     19 C          61.5268   86.7054   10.9392 C.ar    1  UNL1        0.1446
     20 N          61.6519   85.7559   12.0936 N.ar    1  UNL1       -0.1447
     21 C          64.8727   87.7542   15.0281 C.3     1  UNL1        0.0488
     22 C          64.5333   88.9806   14.2340 C.ar    1  UNL1       -0.0189
     23 C          65.2842   90.2577   14.4687 C.ar    1  UNL1       -0.0041
     24 C          64.9447   91.4841   13.6745 C.ar    1  UNL1        0.0013
     25 C          63.8544   91.4334   12.6457 C.ar    1  UNL1        0.0209
     26 C          63.1035   90.1563   12.4110 C.ar    1  UNL1        0.1026
     27 C          63.4430   88.9299   13.2051 C.ar    1  UNL1        0.0167
     28 N          62.0131   90.1056   11.3821 N.ar    1  UNL1       -0.1478
     29 N          62.2052   89.9967    9.8984 N.ar    1  UNL1       -0.1447
     30 C          60.8500   89.9787    9.2557 C.ar    1  UNL1        0.1446
     31 C          59.8203   90.0763   10.3421 C.ar    1  UNL1        0.1446
     32 N          60.5392   90.1547   11.6563 N.ar    1  UNL1       -0.1447
@<TRIPOS>BOND
     1     9    10    1
     2    10    11   ar
     3    11    12   ar
     4    12    13   ar
     5    13     1    1
     6     1     2    2
     7     1     3   am
     8     3     4    1
     9     4     5    1
    10     5     6    1
    11     6     7    1
    12     7     8    1
    13     8    21    1
    14    21    22    1
    15    22    23   ar
    16    23    24   ar
    17    24    25   ar
    18    25    26   ar
    19    26    28    1
    20    28    29   ar
    21    29    30   ar
    22    30    31   ar
    23    31    32   ar
    24    26    27   ar
    25    13    14   ar
    26    14    16    1
    27    16    17   ar
    28    17    18   ar
    29    18    19   ar
    30    19    20   ar
    31    14    15   ar
    32    15    10   ar
    33     8     3    1
    34    27    22   ar
    35    20    16   ar
    36    32    28   ar
