@<TRIPOS>MOLECULE
*****
 37 41 0 0 0
SMALL
GASTEIGER

@<TRIPOS>ATOM
      1 N          63.5058   88.9185   14.0592 N.3     1  UNL1       -0.2679
      2 C          63.3301   89.6203   12.7452 C.3     1  UNL1        0.0978
      3 C          64.0671   90.8981   12.4730 C.3     1  UNL1        0.0224
      4 C          63.8914   91.5999   11.1590 C.3     1  UNL1        0.0065
      5 C          62.9786   91.0240   10.1173 C.3     1  UNL1        0.0277
      6 C          62.2416   89.7463   10.3895 C.ar    1  UNL1       -0.0073
      7 C          61.3289   89.1703    9.3478 C.ar    1  UNL1       -0.0015
      8 C          60.5919   87.8926    9.6200 C.ar    1  UNL1        0.0203
      9 C          60.7676   87.1907   10.9340 C.ar    1  UNL1        0.0985
     10 N          61.6803   87.7666   11.9757 N.ar    1  UNL1       -0.2471
     11 C          62.4173   89.0444   11.7034 C.ar    1  UNL1        0.0695
     12 C          64.4052   87.7218   14.1559 C.3     1  UNL1        0.0886
     13 C          61.9803   81.3428   13.3329 C.ar    1  UNL1       -0.0003
     14 C          62.5054   81.8417   12.0195 C.ar    1  UNL1       -0.0003
     15 C          63.0954   83.2173   11.9214 C.ar    1  UNL1       -0.0045
     16 C          63.1603   84.0940   13.1367 C.ar    1  UNL1       -0.0234
     17 C          62.6352   83.5950   14.4502 C.ar    1  UNL1       -0.0103
     18 C          62.0451   82.2194   14.5483 C.ar    1  UNL1       -0.0032
     19 C          62.7000   84.4717   15.6657 C.3     1  UNL1        0.0953
     20 N          63.2900   85.8473   15.5676 N.3     1  UNL1       -0.2934
     21 C          63.8152   86.3462   14.2540 C.3     1  UNL1        0.0748
     22 C          63.7503   85.4696   13.0386 C.3     1  UNL1        0.0432
     23 H          64.0668   85.8823   16.2277 H       1  UNL1        0.1236
     24 C          62.7822   89.4132   15.2764 C.3     1  UNL1        0.0725
     25 C          63.5329   90.1440   16.3499 C.3     1  UNL1        0.0188
     26 C          63.9911   91.5534   16.1180 C.3     1  UNL1        0.0185
     27 C          65.4165   91.8258   15.7383 C.3     1  UNL1        0.0686
     28 N          65.7569   93.0383   14.9234 N.3     1  UNL1       -0.2975
     29 H          65.8709   93.8112   15.5792 H       1  UNL1        0.1232
     30 C          66.9719   93.0339   14.0439 C.3     1  UNL1        0.0686
     31 C          66.8341   93.2943   12.5731 C.3     1  UNL1        0.0185
     32 C          66.1000   94.5109   12.0924 C.3     1  UNL1        0.0185
     33 C          65.9621   94.7713   10.6216 C.3     1  UNL1        0.0686
     34 N          66.5583   93.8152    9.6315 N.3     1  UNL1       -0.2975
     35 C          67.2924   92.5986   10.1122 C.3     1  UNL1        0.0686
     36 C          67.4303   92.3382   11.5830 C.3     1  UNL1        0.0185
     37 H          67.2155   94.3506    9.0642 H       1  UNL1        0.1232
@<TRIPOS>BOND
     1    13    14   ar
     2    14    15   ar
     3    15    16   ar
     4    16    17   ar
     5    17    18   ar
     6    17    19    1
     7    19    20    1
     8    20    21    1
     9    21    12    1
    10    12     1    1
    11     1    24    1
    12    24    25    1
    13    25    26    1
    14    26    27    1
    15    27    28    1
    16    28    30    1
    17    30    31    1
    18    31    32    1
    19    32    33    1
    20    33    34    1
    21    34    35    1
    22    35    36    1
    23     2     1    1
    24     2     3    1
    25     3     4    1
    26     4     5    1
    27     5     6    1
    28     6     7   ar
    29     7     8   ar
    30     8     9   ar
    31     9    10   ar
    32    10    11   ar
    33    21    22    1
    34    18    13   ar
    35    36    31    1
    36    11     2    1
    37    22    16    1
    38    11     6   ar
    39    20    23    1
    40    28    29    1
    41    34    37    1
@<TRIPOS>MOLECULE
*****
 37 41 0 0 0
SMALL
GASTEIGER

@<TRIPOS>ATOM
      1 N          62.9936   90.7103   12.2864 N.3     1  UNL1       -0.2679
      2 C          64.2259   91.5387   12.0741 C.3     1  UNL1        0.0978
      3 C          64.6491   91.9111   10.6841 C.3     1  UNL1        0.0224
      4 C          65.8815   92.7395   10.4718 C.3     1  UNL1        0.0065
      5 C          66.6906   93.1955   11.6496 C.3     1  UNL1        0.0277
      6 C          66.2674   92.8232   13.0397 C.ar    1  UNL1       -0.0073
      7 C          67.0766   93.2792   14.2175 C.ar    1  UNL1       -0.0015
      8 C          66.6534   92.9069   15.6076 C.ar    1  UNL1        0.0203
      9 C          65.4211   92.0785   15.8198 C.ar    1  UNL1        0.0985
     10 N          64.6119   91.6224   14.6420 N.ar    1  UNL1       -0.2471
     11 C          65.0351   91.9948   13.2520 C.ar    1  UNL1        0.0695
     12 C          61.8113   90.8783   11.3785 C.3     1  UNL1        0.0886
     13 C          61.1712   85.2892    7.4286 C.ar    1  UNL1       -0.0003
     14 C          62.4793   85.2264    8.1600 C.ar    1  UNL1       -0.0003
     15 C          62.8689   86.3316    9.0963 C.ar    1  UNL1       -0.0045
     16 C          61.9505   87.4997    9.3011 C.ar    1  UNL1       -0.0234
     17 C          60.6424   87.5626    8.5697 C.ar    1  UNL1       -0.0103
     18 C          60.2528   86.4573    7.6334 C.ar    1  UNL1       -0.0032
     19 C          59.7239   88.7307    8.7745 C.3     1  UNL1        0.0953
     20 N          60.1136   89.8360    9.7108 N.3     1  UNL1       -0.2934
     21 C          61.4217   89.7731   10.4422 C.3     1  UNL1        0.0748
     22 C          62.3401   88.6050   10.2374 C.3     1  UNL1        0.0432
     23 H          59.3823   89.8929   10.4196 H       1  UNL1        0.1236
     24 C          62.9434   89.7139   13.4065 C.3     1  UNL1        0.0725
     25 C          63.8738   88.5374   13.4060 C.3     1  UNL1        0.0188
     26 C          64.2534   87.8808   14.7001 C.3     1  UNL1        0.0185
     27 C          64.6171   86.4257   14.7245 C.3     1  UNL1        0.0686
     28 N          63.5419   85.3857   14.8363 N.3     1  UNL1       -0.2975
     29 H          62.8971   85.5444   14.0620 H       1  UNL1        0.1232
     30 C          63.9011   83.9297   14.8091 C.3     1  UNL1        0.0686
     31 C          63.6640   83.1217   13.5678 C.3     1  UNL1        0.0185
     32 C          64.0921   83.6549   12.2327 C.3     1  UNL1        0.0185
     33 C          63.8550   82.8469   10.9913 C.3     1  UNL1        0.0686
     34 N          63.1899   81.5058   11.0850 N.3     1  UNL1       -0.2975
     35 C          62.7618   80.9726   12.4201 C.3     1  UNL1        0.0686
     36 C          62.9989   81.7805   13.6615 C.3     1  UNL1        0.0185
     37 H          63.8407   80.8262   10.6915 H       1  UNL1        0.1232
@<TRIPOS>BOND
     1    13    14   ar
     2    14    15   ar
     3    15    16   ar
     4    16    17   ar
     5    17    18   ar
     6    17    19    1
     7    19    20    1
     8    20    21    1
     9    21    12    1
    10    12     1    1
    11     1    24    1
    12    24    25    1
    13    25    26    1
    14    26    27    1
    15    27    28    1
    16    28    30    1
    17    30    31    1
    18    31    32    1
    19    32    33    1
    20    33    34    1
    21    34    35    1
    22    35    36    1
    23     2     1    1
    24     2     3    1
    25     3     4    1
    26     4     5    1
    27     5     6    1
    28     6     7   ar
    29     7     8   ar
    30     8     9   ar
    31     9    10   ar
    32    10    11   ar
    33    21    22    1
    34    18    13   ar
    35    36    31    1
    36    11     2    1
    37    22    16    1
    38    11     6   ar
    39    20    23    1
    40    28    29    1
    41    34    37    1
@<TRIPOS>MOLECULE
*****
 37 41 0 0 0
SMALL
GASTEIGER

@<TRIPOS>ATOM
      1 N          63.7521   89.9508   13.5695 N.3     1  UNL1       -0.2679
      2 C          64.6792   91.0889   13.8776 C.3     1  UNL1        0.0978
      3 C          65.1831   91.2882   15.2763 C.3     1  UNL1        0.0224
      4 C          66.1103   92.4264   15.5845 C.3     1  UNL1        0.0065
      5 C          66.5335   93.3653   14.4939 C.3     1  UNL1        0.0277
      6 C          66.0297   93.1660   13.0952 C.ar    1  UNL1       -0.0073
      7 C          66.4529   94.1048   12.0046 C.ar    1  UNL1       -0.0015
      8 C          65.9491   93.9055   10.6059 C.ar    1  UNL1        0.0203
      9 C          65.0219   92.7674   10.2978 C.ar    1  UNL1        0.0985
     10 N          64.5987   91.8286   11.3883 N.ar    1  UNL1       -0.2471
     11 C          65.1025   92.0279   12.7870 C.ar    1  UNL1        0.0695
     12 C          62.3427   90.2276   13.1366 C.3     1  UNL1        0.0886
     13 C          60.7347   86.3265    7.7102 C.ar    1  UNL1       -0.0003
     14 C          61.8591   85.6801    8.4637 C.ar    1  UNL1       -0.0003
     15 C          62.4056   86.3310    9.6997 C.ar    1  UNL1       -0.0045
     16 C          61.8277   87.6284   10.1822 C.ar    1  UNL1       -0.0234
     17 C          60.7033   88.2748    9.4287 C.ar    1  UNL1       -0.0103
     18 C          60.1568   87.6238    8.1927 C.ar    1  UNL1       -0.0032
     19 C          60.1253   89.5722    9.9112 C.3     1  UNL1        0.0953
     20 N          60.6718   90.2231   11.1471 N.3     1  UNL1       -0.2934
     21 C          61.7963   89.5766   11.9006 C.3     1  UNL1        0.0748
     22 C          62.3742   88.2793   11.4182 C.3     1  UNL1        0.0432
     23 H          59.8938   90.3145   11.8004 H       1  UNL1        0.1236
     24 C          64.2342   88.5359   13.6941 C.3     1  UNL1        0.0725
     25 C          64.2025   87.8473   15.0263 C.3     1  UNL1        0.0188
     26 C          64.6272   86.4132   15.1397 C.3     1  UNL1        0.0185
     27 C          63.6975   85.4009   15.7406 C.3     1  UNL1        0.0686
     28 N          62.5219   84.9022   14.9537 N.3     1  UNL1       -0.2975
     29 H          61.8128   85.6346   14.9877 H       1  UNL1        0.1232
     30 C          62.6893   84.5282   13.5108 C.3     1  UNL1        0.0686
     31 C          62.6867   83.0841   13.1051 C.3     1  UNL1        0.0185
     32 C          62.3317   82.0246   14.1058 C.3     1  UNL1        0.0185
     33 C          62.3291   80.5805   13.7001 C.3     1  UNL1        0.0686
     34 N          62.6815   80.1960   12.2937 N.3     1  UNL1       -0.2975
     35 C          63.0365   81.2555   11.2931 C.3     1  UNL1        0.0686
     36 C          63.0391   82.6996   11.6988 C.3     1  UNL1        0.0185
     37 H          61.8791   79.6917   11.9165 H       1  UNL1        0.1232
@<TRIPOS>BOND
     1    13    14   ar
     2    14    15   ar
     3    15    16   ar
     4    16    17   ar
     5    17    18   ar
     6    17    19    1
     7    19    20    1
     8    20    21    1
     9    21    12    1
    10    12     1    1
    11     1    24    1
    12    24    25    1
    13    25    26    1
    14    26    27    1
    15    27    28    1
    16    28    30    1
    17    30    31    1
    18    31    32    1
    19    32    33    1
    20    33    34    1
    21    34    35    1
    22    35    36    1
    23     2     1    1
    24     2     3    1
    25     3     4    1
    26     4     5    1
    27     5     6    1
    28     6     7   ar
    29     7     8   ar
    30     8     9   ar
    31     9    10   ar
    32    10    11   ar
    33    21    22    1
    34    18    13   ar
    35    36    31    1
    36    11     2    1
    37    22    16    1
    38    11     6   ar
    39    20    23    1
    40    28    29    1
    41    34    37    1
@<TRIPOS>MOLECULE
*****
 37 41 0 0 0
SMALL
GASTEIGER

@<TRIPOS>ATOM
      1 N          60.8585   87.4862   10.1177 N.3     1  UNL1       -0.2679
      2 C          61.7708   86.3466    9.7729 C.3     1  UNL1        0.0978
      3 C          62.1157   86.0691    8.3397 C.3     1  UNL1        0.0224
      4 C          63.0281   84.9295    7.9949 C.3     1  UNL1        0.0065
      5 C          63.5955   84.0673    9.0833 C.3     1  UNL1        0.0277
      6 C          63.2506   84.3448   10.5165 C.ar    1  UNL1       -0.0073
      7 C          63.8181   83.4827   11.6049 C.ar    1  UNL1       -0.0015
      8 C          63.4732   83.7601   13.0381 C.ar    1  UNL1        0.0203
      9 C          62.5609   84.8997   13.3829 C.ar    1  UNL1        0.0985
     10 N          61.9935   85.7619   12.2945 N.ar    1  UNL1       -0.2471
     11 C          62.3383   85.4844   10.8613 C.ar    1  UNL1        0.0695
     12 C          61.0901   88.2802   11.3691 C.3     1  UNL1        0.0886
     13 C          66.0681   92.8424   12.6555 C.ar    1  UNL1       -0.0003
     14 C          65.8881   91.9607   13.8555 C.ar    1  UNL1       -0.0003
     15 C          64.8565   90.8719   13.8383 C.ar    1  UNL1       -0.0045
     16 C          64.0049   90.6648   12.6210 C.ar    1  UNL1       -0.0234
     17 C          64.1849   91.5466   11.4209 C.ar    1  UNL1       -0.0103
     18 C          65.2166   92.6353   11.4382 C.ar    1  UNL1       -0.0032
     19 C          63.3333   91.3395   10.2035 C.3     1  UNL1        0.0953
     20 N          62.3017   90.2507   10.1863 N.3     1  UNL1       -0.2934
     21 C          62.1217   89.3690   11.3864 C.3     1  UNL1        0.0748
     22 C          62.9733   89.5760   12.6037 C.3     1  UNL1        0.0432
     23 H          62.5323   89.6390    9.4033 H       1  UNL1        0.1236
     24 C          59.7146   87.8319    9.2111 C.3     1  UNL1        0.0725
     25 C          59.8199   89.0076    8.2855 C.3     1  UNL1        0.0188
     26 C          59.3894   88.8765    6.8546 C.3     1  UNL1        0.0185
     27 C          58.9878   90.0952    6.0777 C.3     1  UNL1        0.0686
     28 N          60.0311   90.9191    5.3828 N.3     1  UNL1       -0.2975
     29 H          60.5902   90.2752    4.8232 H       1  UNL1        0.1232
     30 C          59.6196   92.0384    4.4730 C.3     1  UNL1        0.0686
     31 C          60.5026   92.4375    3.3280 C.3     1  UNL1        0.0185
     32 C          59.9606   93.3022    2.2288 C.3     1  UNL1        0.0185
     33 C          60.8436   93.7013    1.0838 C.3     1  UNL1        0.0686
     34 N          62.2688   93.2356    1.0381 N.3     1  UNL1       -0.2975
     35 C          62.8108   92.3709    2.1373 C.3     1  UNL1        0.0686
     36 C          61.9278   91.9718    3.2823 C.3     1  UNL1        0.0185
     37 H          62.8511   94.0725    1.0074 H       1  UNL1        0.1232
@<TRIPOS>BOND
     1    13    14   ar
     2    14    15   ar
     3    15    16   ar
     4    16    17   ar
     5    17    18   ar
     6    17    19    1
     7    19    20    1
     8    20    21    1
     9    21    12    1
    10    12     1    1
    11     1    24    1
    12    24    25    1
    13    25    26    1
    14    26    27    1
    15    27    28    1
    16    28    30    1
    17    30    31    1
    18    31    32    1
    19    32    33    1
    20    33    34    1
    21    34    35    1
    22    35    36    1
    23     2     1    1
    24     2     3    1
    25     3     4    1
    26     4     5    1
    27     5     6    1
    28     6     7   ar
    29     7     8   ar
    30     8     9   ar
    31     9    10   ar
    32    10    11   ar
    33    21    22    1
    34    18    13   ar
    35    36    31    1
    36    11     2    1
    37    22    16    1
    38    11     6   ar
    39    20    23    1
    40    28    29    1
    41    34    37    1
@<TRIPOS>MOLECULE
*****
 37 41 0 0 0
SMALL
GASTEIGER

@<TRIPOS>ATOM
      1 N          63.3546   85.0866   12.6286 N.3     1  UNL1       -0.2679
      2 C          63.4491   83.7722   11.9121 C.3     1  UNL1        0.0978
      3 C          64.1242   83.6937   10.5749 C.3     1  UNL1        0.0224
      4 C          64.2187   82.3792    9.8585 C.3     1  UNL1        0.0065
      5 C          63.6382   81.1432   10.4792 C.3     1  UNL1        0.0277
      6 C          62.9631   81.2217   11.8165 C.ar    1  UNL1       -0.0073
      7 C          62.3826   79.9858   12.4372 C.ar    1  UNL1       -0.0015
      8 C          61.7075   80.0643   13.7744 C.ar    1  UNL1        0.0203
      9 C          61.6130   81.3787   14.4909 C.ar    1  UNL1        0.0985
     10 N          62.1935   82.6146   13.8701 N.ar    1  UNL1       -0.2471
     11 C          62.8686   82.5361   12.5329 C.ar    1  UNL1        0.0695
     12 C          63.9628   85.2438   13.9908 C.3     1  UNL1        0.0886
     13 C          64.1266   91.7256   16.2730 C.ar    1  UNL1       -0.0003
     14 C          64.8208   91.6549   14.9453 C.ar    1  UNL1       -0.0003
     15 C          64.9268   90.3444   14.2233 C.ar    1  UNL1       -0.0045
     16 C          64.3387   89.1046   14.8290 C.ar    1  UNL1       -0.0234
     17 C          63.6445   89.1753   16.1568 C.ar    1  UNL1       -0.0103
     18 C          63.5385   90.4858   16.8788 C.ar    1  UNL1       -0.0032
     19 C          63.0564   87.9355   16.7626 C.3     1  UNL1        0.0953
     20 N          63.1624   86.6250   16.0406 N.3     1  UNL1       -0.2934
     21 C          63.8567   86.5543   14.7128 C.3     1  UNL1        0.0748
     22 C          64.4448   87.7941   14.1070 C.3     1  UNL1        0.0432
     23 H          62.2096   86.2922   15.8928 H       1  UNL1        0.1236
     24 C          62.6520   86.2439   11.9829 C.3     1  UNL1        0.0725
     25 C          61.4141   86.0101   11.1686 C.3     1  UNL1        0.0188
     26 C          61.4831   86.0498    9.6707 C.3     1  UNL1        0.0185
     27 C          60.2722   86.4359    8.8741 C.3     1  UNL1        0.0686
     28 N          60.3178   87.6347    7.9735 N.3     1  UNL1       -0.2975
     29 H          59.6073   87.4911    7.2559 H       1  UNL1        0.1232
     30 C          60.0920   89.0059    8.5381 C.3     1  UNL1        0.0686
     31 C          60.5973   89.3450    9.9092 C.3     1  UNL1        0.0185
     32 C          62.0512   89.6482   10.1189 C.3     1  UNL1        0.0185
     33 C          62.5564   89.9873   11.4900 C.3     1  UNL1        0.0686
     34 N          61.6077   90.0232   12.6513 N.3     1  UNL1       -0.2975
     35 C          60.1538   89.7199   12.4415 C.3     1  UNL1        0.0686
     36 C          59.6486   89.3808   11.0704 C.3     1  UNL1        0.0185
     37 H          61.6588   90.9630   13.0443 H       1  UNL1        0.1232
@<TRIPOS>BOND
     1    13    14   ar
     2    14    15   ar
     3    15    16   ar
     4    16    17   ar
     5    17    18   ar
     6    17    19    1
     7    19    20    1
     8    20    21    1
     9    21    12    1
    10    12     1    1
    11     1    24    1
    12    24    25    1
    13    25    26    1
    14    26    27    1
    15    27    28    1
    16    28    30    1
    17    30    31    1
    18    31    32    1
    19    32    33    1
    20    33    34    1
    21    34    35    1
    22    35    36    1
    23     2     1    1
    24     2     3    1
    25     3     4    1
    26     4     5    1
    27     5     6    1
    28     6     7   ar
    29     7     8   ar
    30     8     9   ar
    31     9    10   ar
    32    10    11   ar
    33    21    22    1
    34    18    13   ar
    35    36    31    1
    36    11     2    1
    37    22    16    1
    38    11     6   ar
    39    20    23    1
    40    28    29    1
    41    34    37    1
@<TRIPOS>MOLECULE
*****
 37 41 0 0 0
SMALL
GASTEIGER

@<TRIPOS>ATOM
      1 N          63.1592   84.8556   14.3527 N.3     1  UNL1       -0.2679
      2 C          62.7291   83.4764   13.9490 C.3     1  UNL1        0.0978
      3 C          61.8603   82.6641   14.8630 C.3     1  UNL1        0.0224
      4 C          61.4303   81.2849   14.4593 C.3     1  UNL1        0.0065
      5 C          61.8691   80.7181   13.1417 C.3     1  UNL1        0.0277
      6 C          62.7379   81.5304   12.2277 C.ar    1  UNL1       -0.0073
      7 C          63.1767   80.9635   10.9101 C.ar    1  UNL1       -0.0015
      8 C          64.0455   81.7759    9.9962 C.ar    1  UNL1        0.0203
      9 C          64.4755   83.1550   10.3998 C.ar    1  UNL1        0.0985
     10 N          64.0367   83.7218   11.7174 N.ar    1  UNL1       -0.2471
     11 C          63.1679   82.9095   12.6314 C.ar    1  UNL1        0.0695
     12 C          63.9140   85.7190   13.3857 C.3     1  UNL1        0.0886
     13 C          60.0500   88.9772    8.7271 C.ar    1  UNL1       -0.0003
     14 C          59.8918   87.4965    8.5472 C.ar    1  UNL1       -0.0003
     15 C          60.6329   86.5487    9.4429 C.ar    1  UNL1       -0.0045
     16 C          61.5323   87.0816   10.5186 C.ar    1  UNL1       -0.0234
     17 C          61.6905   88.5624   10.6985 C.ar    1  UNL1       -0.0103
     18 C          60.9493   89.5101    9.8027 C.ar    1  UNL1       -0.0032
     19 C          62.5899   89.0954   11.7742 C.3     1  UNL1        0.0953
     20 N          63.3310   88.1476   12.6700 N.3     1  UNL1       -0.2934
     21 C          63.1728   86.6668   12.4900 C.3     1  UNL1        0.0748
     22 C          62.2734   86.1339   11.4143 C.3     1  UNL1        0.0432
     23 H          63.0443   88.3604   13.6254 H       1  UNL1        0.1236
     24 C          62.8344   85.3715   15.7232 C.3     1  UNL1        0.0725
     25 C          63.6408   86.4896   16.3143 C.3     1  UNL1        0.0188
     26 C          62.9597   87.5739   17.0956 C.3     1  UNL1        0.0185
     27 C          63.0824   89.0036   16.6585 C.3     1  UNL1        0.0686
     28 N          63.8904   89.3494   15.4429 N.3     1  UNL1       -0.2975
     29 H          63.5978   88.7107   14.7034 H       1  UNL1        0.1232
     30 C          63.8272   90.7339   14.8693 C.3     1  UNL1        0.0686
     31 C          65.0141   91.3024   14.1496 C.3     1  UNL1        0.0185
     32 C          64.8515   91.8806   12.7751 C.3     1  UNL1        0.0185
     33 C          66.0384   92.4491   12.0553 C.3     1  UNL1        0.0686
     34 N          67.3879   92.4395   12.7100 N.3     1  UNL1       -0.2975
     35 C          67.5505   91.8613   14.0845 C.3     1  UNL1        0.0686
     36 C          66.3636   91.2928   14.8043 C.3     1  UNL1        0.0185
     37 H          67.6978   93.4100   12.7602 H       1  UNL1        0.1232
@<TRIPOS>BOND
     1    13    14   ar
     2    14    15   ar
     3    15    16   ar
     4    16    17   ar
     5    17    18   ar
     6    17    19    1
     7    19    20    1
     8    20    21    1
     9    21    12    1
    10    12     1    1
    11     1    24    1
    12    24    25    1
    13    25    26    1
    14    26    27    1
    15    27    28    1
    16    28    30    1
    17    30    31    1
    18    31    32    1
    19    32    33    1
    20    33    34    1
    21    34    35    1
    22    35    36    1
    23     2     1    1
    24     2     3    1
    25     3     4    1
    26     4     5    1
    27     5     6    1
    28     6     7   ar
    29     7     8   ar
    30     8     9   ar
    31     9    10   ar
    32    10    11   ar
    33    21    22    1
    34    18    13   ar
    35    36    31    1
    36    11     2    1
    37    22    16    1
    38    11     6   ar
    39    20    23    1
    40    28    29    1
    41    34    37    1
@<TRIPOS>MOLECULE
*****
 37 41 0 0 0
SMALL
GASTEIGER

@<TRIPOS>ATOM
      1 N          63.2791   85.3510   12.9601 N.3     1  UNL1       -0.2679
      2 C          63.4267   84.1236   12.1106 C.3     1  UNL1        0.0978
      3 C          64.0555   84.2226   10.7524 C.3     1  UNL1        0.0224
      4 C          64.2030   82.9951    9.9029 C.3     1  UNL1        0.0065
      5 C          63.7217   81.6687   10.4116 C.3     1  UNL1        0.0277
      6 C          63.0929   81.5697   11.7698 C.ar    1  UNL1       -0.0073
      7 C          62.6116   80.2432   12.2786 C.ar    1  UNL1       -0.0015
      8 C          61.9827   80.1442   13.6368 C.ar    1  UNL1        0.0203
      9 C          61.8352   81.3716   14.4863 C.ar    1  UNL1        0.0985
     10 N          62.3165   82.6981   13.9775 N.ar    1  UNL1       -0.2471
     11 C          62.9454   82.7971   12.6193 C.ar    1  UNL1        0.0695
     12 C          61.9650   86.0723   13.0141 C.3     1  UNL1        0.0886
     13 C          59.5356   88.6960    7.1434 C.ar    1  UNL1       -0.0003
     14 C          59.3689   87.2054    7.1212 C.ar    1  UNL1       -0.0003
     15 C          59.8214   86.3826    8.2909 C.ar    1  UNL1       -0.0045
     16 C          60.4407   87.0503    9.4828 C.ar    1  UNL1       -0.0234
     17 C          60.6074   88.5408    9.5050 C.ar    1  UNL1       -0.0103
     18 C          60.1549   89.3636    8.3353 C.ar    1  UNL1       -0.0032
     19 C          61.2267   89.2085   10.6970 C.3     1  UNL1        0.0953
     20 N          61.6792   88.3857   11.8666 N.3     1  UNL1       -0.2934
     21 C          61.5125   86.8951   11.8444 C.3     1  UNL1        0.0748
     22 C          60.8932   86.2274   10.6525 C.3     1  UNL1        0.0432
     23 H          61.1694   88.7269   12.6815 H       1  UNL1        0.1236
     24 C          64.4457   85.8572   13.7556 C.3     1  UNL1        0.0725
     25 C          64.2413   86.9221   14.7920 C.3     1  UNL1        0.0188
     26 C          64.3575   88.3690   14.4138 C.3     1  UNL1        0.0185
     27 C          63.6543   89.4154   15.2266 C.3     1  UNL1        0.0686
     28 N          63.2974   90.7332   14.6053 N.3     1  UNL1       -0.2975
     29 H          63.8382   91.4459   15.0952 H       1  UNL1        0.1232
     30 C          63.5176   90.9549   13.1382 C.3     1  UNL1        0.0686
     31 C          64.7651   91.6383   12.6619 C.3     1  UNL1        0.0185
     32 C          65.9091   91.8553   13.6075 C.3     1  UNL1        0.0185
     33 C          67.1565   92.5387   13.1312 C.3     1  UNL1        0.0686
     34 N          67.2599   93.0052   11.7093 N.3     1  UNL1       -0.2975
     35 C          66.1159   92.7882   10.7638 C.3     1  UNL1        0.0686
     36 C          64.8685   92.1048   11.2401 C.3     1  UNL1        0.0185
     37 H          68.0700   92.5365   11.3039 H       1  UNL1        0.1232
@<TRIPOS>BOND
     1    13    14   ar
     2    14    15   ar
     3    15    16   ar
     4    16    17   ar
     5    17    18   ar
     6    17    19    1
     7    19    20    1
     8    20    21    1
     9    21    12    1
    10    12     1    1
    11     1    24    1
    12    24    25    1
    13    25    26    1
    14    26    27    1
    15    27    28    1
    16    28    30    1
    17    30    31    1
    18    31    32    1
    19    32    33    1
    20    33    34    1
    21    34    35    1
    22    35    36    1
    23     2     1    1
    24     2     3    1
    25     3     4    1
    26     4     5    1
    27     5     6    1
    28     6     7   ar
    29     7     8   ar
    30     8     9   ar
    31     9    10   ar
    32    10    11   ar
    33    21    22    1
    34    18    13   ar
    35    36    31    1
    36    11     2    1
    37    22    16    1
    38    11     6   ar
    39    20    23    1
    40    28    29    1
    41    34    37    1
@<TRIPOS>MOLECULE
*****
 37 41 0 0 0
SMALL
GASTEIGER

@<TRIPOS>ATOM
      1 N          62.3040   85.7204   10.7468 N.3     1  UNL1       -0.2679
      2 C          62.6400   84.5255   11.5889 C.3     1  UNL1        0.0978
      3 C          62.3436   83.1446   11.0837 C.3     1  UNL1        0.0224
      4 C          62.6797   81.9497   11.9259 C.3     1  UNL1        0.0065
      5 C          63.3122   82.1357   13.2733 C.3     1  UNL1        0.0277
      6 C          63.6086   83.5166   13.7785 C.ar    1  UNL1       -0.0073
      7 C          64.2411   83.7025   15.1258 C.ar    1  UNL1       -0.0015
      8 C          64.5375   85.0834   15.6310 C.ar    1  UNL1        0.0203
      9 C          64.2014   86.2784   14.7889 C.ar    1  UNL1        0.0985
     10 N          63.5690   86.0924   13.4416 N.ar    1  UNL1       -0.2471
     11 C          63.2725   84.7115   12.9363 C.ar    1  UNL1        0.0695
     12 C          61.6607   86.9223   11.3729 C.3     1  UNL1        0.0886
     13 C          65.2074   92.7522   12.1993 C.ar    1  UNL1       -0.0003
     14 C          65.3832   91.8937   13.4167 C.ar    1  UNL1       -0.0003
     15 C          64.7090   90.5561   13.4949 C.ar    1  UNL1       -0.0045
     16 C          63.8590   90.0768   12.3557 C.ar    1  UNL1       -0.0234
     17 C          63.6833   90.9353   11.1383 C.ar    1  UNL1       -0.0103
     18 C          64.3575   92.2729   11.0601 C.ar    1  UNL1       -0.0032
     19 C          62.8333   90.4560    9.9990 C.3     1  UNL1        0.0953
     20 N          62.1591   89.1184   10.0772 N.3     1  UNL1       -0.2934
     21 C          62.3349   88.2599   11.2947 C.3     1  UNL1        0.0748
     22 C          63.1849   88.7392   12.4339 C.3     1  UNL1        0.0432
     23 H          62.4927   88.5735    9.2821 H       1  UNL1        0.1236
     24 C          62.6112   85.7136    9.2786 C.3     1  UNL1        0.0725
     25 C          61.6362   86.3074    8.3056 C.3     1  UNL1        0.0188
     26 C          60.1636   86.2372    8.5822 C.3     1  UNL1        0.0185
     27 C          59.1816   86.6498    7.5260 C.3     1  UNL1        0.0686
     28 N          58.6954   88.0676    7.4667 N.3     1  UNL1       -0.2975
     29 H          58.3272   88.2915    8.3912 H       1  UNL1        0.1232
     30 C          59.6431   89.1707    7.0993 C.3     1  UNL1        0.0686
     31 C          59.2517   90.1814    6.0623 C.3     1  UNL1        0.0185
     32 C          60.3087   90.8810    5.2604 C.3     1  UNL1        0.0185
     33 C          59.9173   91.8918    4.2234 C.3     1  UNL1        0.0686
     34 N          58.4689   92.2029    3.9884 N.3     1  UNL1       -0.2975
     35 C          57.4119   91.5033    4.7904 C.3     1  UNL1        0.0686
     36 C          57.8033   90.4926    5.8274 C.3     1  UNL1        0.0185
     37 H          58.2788   91.9970    3.0077 H       1  UNL1        0.1232
@<TRIPOS>BOND
     1    13    14   ar
     2    14    15   ar
     3    15    16   ar
     4    16    17   ar
     5    17    18   ar
     6    17    19    1
     7    19    20    1
     8    20    21    1
     9    21    12    1
    10    12     1    1
    11     1    24    1
    12    24    25    1
    13    25    26    1
    14    26    27    1
    15    27    28    1
    16    28    30    1
    17    30    31    1
    18    31    32    1
    19    32    33    1
    20    33    34    1
    21    34    35    1
    22    35    36    1
    23     2     1    1
    24     2     3    1
    25     3     4    1
    26     4     5    1
    27     5     6    1
    28     6     7   ar
    29     7     8   ar
    30     8     9   ar
    31     9    10   ar
    32    10    11   ar
    33    21    22    1
    34    18    13   ar
    35    36    31    1
    36    11     2    1
    37    22    16    1
    38    11     6   ar
    39    20    23    1
    40    28    29    1
    41    34    37    1
@<TRIPOS>MOLECULE
*****
 37 41 0 0 0
SMALL
GASTEIGER

@<TRIPOS>ATOM
      1 N          63.1947   88.9622   13.1964 N.3     1  UNL1       -0.2679
      2 C          63.6614   87.5923   13.5905 C.3     1  UNL1        0.0978
      3 C          64.5313   87.4152   14.7995 C.3     1  UNL1        0.0224
      4 C          64.9980   86.0451   15.1936 C.3     1  UNL1        0.0065
      5 C          64.5948   84.8522   14.3785 C.3     1  UNL1        0.0277
      6 C          63.7249   85.0293   13.1694 C.ar    1  UNL1       -0.0073
      7 C          63.3216   83.8364   12.3544 C.ar    1  UNL1       -0.0015
      8 C          62.4517   84.0135   11.1453 C.ar    1  UNL1        0.0203
      9 C          61.9850   85.3834   10.7513 C.ar    1  UNL1        0.0985
     10 N          62.3882   86.5763   11.5663 N.ar    1  UNL1       -0.2471
     11 C          63.2582   86.3993   12.7754 C.ar    1  UNL1        0.0695
     12 C          62.9662   90.0079   14.2474 C.3     1  UNL1        0.0886
     13 C          68.8597   93.3087   15.5207 C.ar    1  UNL1       -0.0003
     14 C          68.9951   92.5381   14.2409 C.ar    1  UNL1       -0.0003
     15 C          67.8435   91.7239   13.7303 C.ar    1  UNL1       -0.0045
     16 C          66.5565   91.6802   14.4995 C.ar    1  UNL1       -0.0234
     17 C          66.4211   92.4508   15.7792 C.ar    1  UNL1       -0.0103
     18 C          67.5727   93.2650   16.2898 C.ar    1  UNL1       -0.0032
     19 C          65.1340   92.4071   16.5484 C.3     1  UNL1        0.0953
     20 N          63.9824   91.5928   16.0379 N.3     1  UNL1       -0.2934
     21 C          64.1179   90.8222   14.7580 C.3     1  UNL1        0.0748
     22 C          65.4049   90.8659   13.9889 C.3     1  UNL1        0.0432
     23 H          63.1999   92.2351   15.9134 H       1  UNL1        0.1236
     24 C          62.9564   89.2866   11.7515 C.3     1  UNL1        0.0725
     25 C          61.5622   89.5399   11.2597 C.3     1  UNL1        0.0188
     26 C          61.3401   90.0653    9.8724 C.3     1  UNL1        0.0185
     27 C          60.0893   89.7068    9.1259 C.3     1  UNL1        0.0686
     28 N          60.1489   88.7322    7.9871 N.3     1  UNL1       -0.2975
     29 H          60.0952   87.7989    8.3952 H       1  UNL1        0.1232
     30 C          59.1196   88.7882    6.8975 C.3     1  UNL1        0.0686
     31 C          59.0392   89.9894    6.0027 C.3     1  UNL1        0.0185
     32 C          60.2915   90.5807    5.4267 C.3     1  UNL1        0.0185
     33 C          60.2111   91.7819    4.5319 C.3     1  UNL1        0.0686
     34 N          58.8783   92.3918    4.2131 N.3     1  UNL1       -0.2975
     35 C          57.6260   91.8004    4.7891 C.3     1  UNL1        0.0686
     36 C          57.7064   90.5992    5.6839 C.3     1  UNL1        0.0185
     37 H          58.7772   92.3646    3.1985 H       1  UNL1        0.1232
@<TRIPOS>BOND
     1    13    14   ar
     2    14    15   ar
     3    15    16   ar
     4    16    17   ar
     5    17    18   ar
     6    17    19    1
     7    19    20    1
     8    20    21    1
     9    21    12    1
    10    12     1    1
    11     1    24    1
    12    24    25    1
    13    25    26    1
    14    26    27    1
    15    27    28    1
    16    28    30    1
    17    30    31    1
    18    31    32    1
    19    32    33    1
    20    33    34    1
    21    34    35    1
    22    35    36    1
    23     2     1    1
    24     2     3    1
    25     3     4    1
    26     4     5    1
    27     5     6    1
    28     6     7   ar
    29     7     8   ar
    30     8     9   ar
    31     9    10   ar
    32    10    11   ar
    33    21    22    1
    34    18    13   ar
    35    36    31    1
    36    11     2    1
    37    22    16    1
    38    11     6   ar
    39    20    23    1
    40    28    29    1
    41    34    37    1
