@<TRIPOS>MOLECULE
*****
 38 44 0 0 0
SMALL
GASTEIGER

@<TRIPOS>ATOM
      1 C          64.3404   91.5614   14.2836 C.3     1  UNL1        0.0339
      2 C          63.6751   90.6390   13.3057 C.3     1  UNL1        0.1349
      3 C          63.7987   89.1534   13.4725 C.3     1  UNL1        0.1205
      4 N          63.1333   88.2309   12.4946 N.pl3   1  UNL1       -0.3019
      5 C          63.2570   86.7454   12.6614 C.ar    1  UNL1        0.0749
      6 C          62.5916   85.8229   11.6834 C.ar    1  UNL1       -0.0053
      7 C          62.7153   84.3373   11.8503 C.ar    1  UNL1        0.0032
      8 C          63.5043   83.7743   12.9950 C.ar    1  UNL1        0.0745
      9 C          63.7998   82.3643   13.4130 C.ar    1  UNL1        0.1821
     10 N          64.6478   82.4154   14.6492 N.ar    1  UNL1       -0.0613
     11 O          64.8764   83.8569   14.9953 O.2     1  UNL1       -0.3498
     12 C          64.1696   84.6968   13.9729 C.ar    1  UNL1        0.2065
     13 C          64.0460   86.1823   13.8061 C.ar    1  UNL1        0.1899
     14 F          64.7114   87.1048   14.7840 F       1  UNL1       -0.1996
     15 C          61.8026   86.3860   10.5387 C.3     1  UNL1        0.0468
     16 C          61.6790   87.8715   10.3720 C.3     1  UNL1        0.1606
     17 C          61.0136   86.9490    9.3940 C.2     1  UNL1        0.2387
     18 O          61.1372   85.4635    9.5608 O.2     1  UNL1       -0.2741
     19 N          60.2246   87.5122    8.2493 N.am    1  UNL1       -0.2389
     20 C          60.1009   88.9977    8.0825 C.2     1  UNL1        0.3122
     21 O          59.3119   89.5608    6.9377 O.2     1  UNL1       -0.2520
     22 N          60.7663   89.9202    9.0604 N.am    1  UNL1       -0.2389
     23 C          61.5553   89.3571   10.2051 C.2     1  UNL1        0.2387
     24 O          61.8306   89.9849   10.6120 O.2     1  UNL1       -0.2741
     25 C          62.3443   88.7940   11.3499 C.3     1  UNL1        0.1166
     26 C          62.2207   90.2796   11.1830 C.3     1  UNL1        0.1341
     27 C          61.4317   90.8427   10.0383 C.3     1  UNL1        0.0338
     28 O          62.8860   91.2021   12.1609 O.3     1  UNL1       -0.3553
     29 H          59.7879   86.9067    7.6074 H       1  UNL1        0.1591
     30 H          60.6851   90.8952    8.9509 H       1  UNL1        0.1591
     31 N          63.3298   81.1215   12.7169 N.am    1  UNL1       -0.2035
     32 C          63.3715   80.8695   11.2388 C.3     1  UNL1        0.1430
     33 C          62.8031   79.5048   10.9851 C.3     1  UNL1        0.1564
     34 C          62.9710   79.5396    9.4949 C.3     1  UNL1        0.0456
     35 C          62.3768   78.3305   10.1546 C.3     1  UNL1        0.0456
     36 O          62.4101   78.9133   12.3063 O.3     1  UNL1       -0.4398
     37 C          62.7357   79.9125   13.3767 C.2     1  UNL1        0.4098
     38 O          62.5071   79.7341   14.8484 O.2     1  UNL1       -0.2258
@<TRIPOS>BOND
     1     2     1    1
     2     2     3    1
     3     3     4    1
     4     4     5    1
     5     5     6   ar
     6     6     7   ar
     7     7     8   ar
     8     8     9   ar
     9     9    31    1
    10    31    32    1
    11    32    33    1
    12    33    34    1
    13    34    35    1
    14    33    36    1
    15    36    37    1
    16    37    38    2
    17     9    10   ar
    18    10    11   ar
    19    11    12   ar
    20    12    13   ar
    21    13    14    1
    22     6    15    1
    23    15    16    1
    24    16    17    1
    25    17    18    2
    26    17    19   am
    27    19    20   am
    28    20    21    2
    29    20    22   am
    30    22    23   am
    31    23    24    2
    32    25    16    1
    33    25    26    1
    34    26    27    1
    35    26    28    1
    36    28     2    1
    37    25     4    1
    38    13     5   ar
    39    23    16    1
    40    12     8   ar
    41    37    31   am
    42    35    33    1
    43    19    29    1
    44    22    30    1
@<TRIPOS>MOLECULE
*****
 38 44 0 0 0
SMALL
GASTEIGER

@<TRIPOS>ATOM
      1 C          63.0895   83.7329   13.8363 C.3     1  UNL1        0.0339
      2 C          63.1244   85.1705   13.4095 C.3     1  UNL1        0.1349
      3 C          62.3862   85.6054   12.1783 C.3     1  UNL1        0.1205
      4 N          62.4211   87.0430   11.7515 N.pl3   1  UNL1       -0.3019
      5 C          61.6829   87.4780   10.5204 C.ar    1  UNL1        0.0749
      6 C          61.7178   88.9156   10.0936 C.ar    1  UNL1       -0.0053
      7 C          60.9795   89.3505    8.8623 C.ar    1  UNL1        0.0032
      8 C          60.2064   88.3479    8.0580 C.ar    1  UNL1        0.0745
      9 C          59.3872   88.4804    6.8084 C.ar    1  UNL1        0.1821
     10 N          58.8461   87.1248    6.4629 N.ar    1  UNL1       -0.0613
     11 O          59.3307   86.1545    7.4990 O.2     1  UNL1       -0.3498
     12 C          60.1714   86.9104    8.4848 C.ar    1  UNL1        0.2065
     13 C          60.9097   86.4754    9.7160 C.ar    1  UNL1        0.1899
     14 F          60.8747   85.0378   10.1428 F       1  UNL1       -0.1996
     15 C          62.4910   89.9181   10.8979 C.3     1  UNL1        0.0468
     16 C          63.2292   89.4832   12.1290 C.3     1  UNL1        0.1606
     17 C          63.2641   90.9207   11.7022 C.2     1  UNL1        0.2387
     18 O          62.5259   91.3557   10.4711 O.2     1  UNL1       -0.2741
     19 N          64.0374   91.9233   12.5066 N.am    1  UNL1       -0.2389
     20 C          64.7756   91.4884   13.7377 C.2     1  UNL1        0.3122
     21 O          65.5488   92.4910   14.5421 O.2     1  UNL1       -0.2520
     22 N          64.7407   90.0508   14.1646 N.am    1  UNL1       -0.2389
     23 C          63.9675   89.0482   13.3602 C.2     1  UNL1        0.2387
     24 O          64.0617   88.3490   13.7315 O.2     1  UNL1       -0.2741
     25 C          63.1943   88.0456   12.5558 C.3     1  UNL1        0.1166
     26 C          63.9326   87.6106   13.7871 C.3     1  UNL1        0.1341
     27 C          64.7057   88.6132   14.5914 C.3     1  UNL1        0.0338
     28 O          63.8976   86.1731   14.2139 O.3     1  UNL1       -0.3553
     29 H          64.0603   92.8669   12.2265 H       1  UNL1        0.1591
     30 H          65.2252   89.7653   14.9726 H       1  UNL1        0.1591
     31 N          59.1508   89.7464    6.0393 N.am    1  UNL1       -0.2035
     32 C          60.1993   90.5673    5.3488 C.3     1  UNL1        0.1430
     33 C          59.5209   91.7420    4.7084 C.3     1  UNL1        0.1564
     34 C          60.7656   92.3436    4.1263 C.3     1  UNL1        0.0456
     35 C          59.4392   93.0110    3.9127 C.3     1  UNL1        0.0456
     36 O          58.0532   91.6471    5.0032 O.3     1  UNL1       -0.4398
     37 C          57.8245   90.4137    5.8258 C.2     1  UNL1        0.4098
     38 O          56.5017   89.9322    6.3438 O.2     1  UNL1       -0.2258
@<TRIPOS>BOND
     1     2     1    1
     2     2     3    1
     3     3     4    1
     4     4     5    1
     5     5     6   ar
     6     6     7   ar
     7     7     8   ar
     8     8     9   ar
     9     9    31    1
    10    31    32    1
    11    32    33    1
    12    33    34    1
    13    34    35    1
    14    33    36    1
    15    36    37    1
    16    37    38    2
    17     9    10   ar
    18    10    11   ar
    19    11    12   ar
    20    12    13   ar
    21    13    14    1
    22     6    15    1
    23    15    16    1
    24    16    17    1
    25    17    18    2
    26    17    19   am
    27    19    20   am
    28    20    21    2
    29    20    22   am
    30    22    23   am
    31    23    24    2
    32    25    16    1
    33    25    26    1
    34    26    27    1
    35    26    28    1
    36    28     2    1
    37    25     4    1
    38    13     5   ar
    39    23    16    1
    40    12     8   ar
    41    37    31   am
    42    35    33    1
    43    19    29    1
    44    22    30    1
@<TRIPOS>MOLECULE
*****
 38 44 0 0 0
SMALL
GASTEIGER

@<TRIPOS>ATOM
      1 C          60.2337   86.5562    8.1198 C.3     1  UNL1        0.0339
      2 C          61.0253   86.4229    9.3869 C.3     1  UNL1        0.1349
      3 C          61.7415   87.6133    9.9525 C.3     1  UNL1        0.1205
      4 N          62.5332   87.4800   11.2196 N.pl3   1  UNL1       -0.3019
      5 C          63.2494   88.6703   11.7853 C.ar    1  UNL1        0.0749
      6 C          64.0410   88.5370   13.0524 C.ar    1  UNL1       -0.0053
      7 C          64.7572   89.7275   13.6181 C.ar    1  UNL1        0.0032
      8 C          64.6818   91.0512   12.9166 C.ar    1  UNL1        0.0745
      9 C          65.2783   92.3905   13.2336 C.ar    1  UNL1        0.1821
     10 N          64.8553   93.3516   12.1624 N.ar    1  UNL1       -0.0613
     11 O          63.9974   92.6062   11.1834 O.2     1  UNL1       -0.3498
     12 C          63.8902   91.1845   11.6495 C.ar    1  UNL1        0.2065
     13 C          63.1740   89.9941   11.0838 C.ar    1  UNL1        0.1899
     14 F          62.3824   90.1275    9.8167 F       1  UNL1       -0.1996
     15 C          64.1164   87.2133   13.7539 C.3     1  UNL1        0.0468
     16 C          63.4002   86.0229   13.1882 C.3     1  UNL1        0.1606
     17 C          64.1918   85.8896   14.4553 C.2     1  UNL1        0.2387
     18 O          64.9080   87.0800   15.0210 O.2     1  UNL1       -0.2741
     19 N          64.2672   84.5658   15.1568 N.am    1  UNL1       -0.2389
     20 C          63.5510   83.3754   14.5911 C.2     1  UNL1        0.3122
     21 O          63.6264   82.0516   15.2926 O.2     1  UNL1       -0.2520
     22 N          62.7594   83.5088   13.3240 N.am    1  UNL1       -0.2389
     23 C          62.6840   84.8325   12.6226 C.2     1  UNL1        0.2387
     24 O          62.2282   84.7145   11.9792 O.2     1  UNL1       -0.2741
     25 C          62.6086   86.1563   11.9211 C.3     1  UNL1        0.1166
     26 C          61.8924   84.9658   11.3554 C.3     1  UNL1        0.1341
     27 C          61.9678   83.6421   12.0569 C.3     1  UNL1        0.0338
     28 O          61.1007   85.0991   10.0883 O.3     1  UNL1       -0.3553
     29 H          64.7868   84.4783   15.9884 H       1  UNL1        0.1591
     30 H          62.2893   82.7275   12.9527 H       1  UNL1        0.1591
     31 N          66.1455   92.7122   14.4145 N.am    1  UNL1       -0.2035
     32 C          67.5768   93.1579   14.3618 C.3     1  UNL1        0.1430
     33 C          68.0495   93.3659   15.7701 C.3     1  UNL1        0.1564
     34 C          69.4429   93.7866   15.4072 C.3     1  UNL1        0.0456
     35 C          69.0311   93.7190   16.8481 C.3     1  UNL1        0.0456
     36 O          66.9105   93.0487   16.6931 O.3     1  UNL1       -0.4398
     37 C          65.7337   92.6447   15.8552 C.2     1  UNL1        0.4098
     38 O          64.3823   92.2436   16.3681 O.2     1  UNL1       -0.2258
@<TRIPOS>BOND
     1     2     1    1
     2     2     3    1
     3     3     4    1
     4     4     5    1
     5     5     6   ar
     6     6     7   ar
     7     7     8   ar
     8     8     9   ar
     9     9    31    1
    10    31    32    1
    11    32    33    1
    12    33    34    1
    13    34    35    1
    14    33    36    1
    15    36    37    1
    16    37    38    2
    17     9    10   ar
    18    10    11   ar
    19    11    12   ar
    20    12    13   ar
    21    13    14    1
    22     6    15    1
    23    15    16    1
    24    16    17    1
    25    17    18    2
    26    17    19   am
    27    19    20   am
    28    20    21    2
    29    20    22   am
    30    22    23   am
    31    23    24    2
    32    25    16    1
    33    25    26    1
    34    26    27    1
    35    26    28    1
    36    28     2    1
    37    25     4    1
    38    13     5   ar
    39    23    16    1
    40    12     8   ar
    41    37    31   am
    42    35    33    1
    43    19    29    1
    44    22    30    1
