@<TRIPOS>MOLECULE
*****
 40 45 0 0 0
SMALL
GASTEIGER

@<TRIPOS>ATOM
      1 N          62.5118   83.6952   10.8661 N.ar    1  UNL1       -0.3080
      2 C          62.2087   82.6301    9.8543 C.ar    1  UNL1        0.1786
      3 N          62.4847   81.2982   10.4867 N.ar    1  UNL1       -0.2223
      4 C          62.9584   81.5401   11.8892 C.ar    1  UNL1        0.1179
      5 C          63.3766   80.6029   12.9831 C.ar    1  UNL1        0.1194
      6 N          63.8116   81.1471   14.3116 N.ar    1  UNL1       -0.2421
      7 C          63.8283   82.6286   14.5460 C.ar    1  UNL1        0.0850
      8 C          64.2633   83.1728   15.8744 C.ar    1  UNL1        0.0488
      9 C          64.2800   84.6543   16.1089 C.ar    1  UNL1        0.1416
     10 F          64.7150   85.1985   17.4372 F       1  UNL1       -0.2041
     11 C          63.8618   85.5915   15.0150 C.ar    1  UNL1        0.0284
     12 C          63.4268   85.0473   13.6865 C.ar    1  UNL1        0.0052
     13 C          63.4101   83.5658   13.4521 C.ar    1  UNL1        0.0352
     14 C          62.9751   83.0216   12.1237 C.ar    1  UNL1        0.0819
     15 O          62.3351   90.2194    8.7087 O.2     1  UNL1       -0.2722
     16 C          61.9665   89.6116   10.0296 C.2     1  UNL1        0.2556
     17 N          62.1028   88.1325   10.2387 N.am    1  UNL1       -0.2746
     18 C          61.7342   87.5247   11.5596 C.3     1  UNL1        0.0956
     19 C          61.8706   86.0455   11.7686 C.3     1  UNL1        0.0470
     20 C          62.3755   85.1743   10.6569 C.3     1  UNL1        0.1228
     21 C          62.7441   85.7821    9.3361 C.3     1  UNL1        0.2012
     22 F          63.2490   84.9109    8.2243 F       1  UNL1       -0.2334
     23 C          62.6077   87.2612    9.1270 C.3     1  UNL1        0.1306
     24 C          61.4616   90.4828   11.1413 C.3     1  UNL1        0.2232
     25 O          62.3762   90.8693   12.2656 O.3     1  UNL1       -0.3737
     26 H          62.6151   90.0788   12.7745 H       1  UNL1        0.2110
     27 C          63.8785   87.0730   15.2494 C.ar    1  UNL1        0.0129
     28 C          64.5991   87.9757   14.2924 C.ar    1  UNL1        0.0040
     29 C          64.6158   89.4572   14.5269 C.ar    1  UNL1        0.0377
     30 C          63.9119   90.0359   15.7184 C.ar    1  UNL1        0.1495
     31 C          63.1914   89.1332   16.6754 C.ar    1  UNL1        0.0490
     32 C          63.1746   87.6518   16.4409 C.ar    1  UNL1        0.0608
     33 CL         62.4541   86.7490   17.3979 Cl      1  UNL1       -0.0821
     34 O          63.9287   91.5174   15.9529 O.3     1  UNL1       -0.4223
     35 C          65.1359   92.3231   15.5740 C.ar    1  UNL1        0.3246
     36 N          65.2746   92.8554   14.1785 N.ar    1  UNL1       -0.1924
     37 C          66.4818   93.6612   13.7997 C.ar    1  UNL1        0.1053
     38 C          67.5503   93.9345   14.8163 C.ar    1  UNL1        0.0416
     39 C          67.4116   93.4021   16.2118 C.ar    1  UNL1        0.1053
     40 N          66.2044   92.5965   16.5906 N.ar    1  UNL1       -0.1924
@<TRIPOS>BOND
     1    15    16    2
     2    16    24    1
     3    24    25    1
     4    16    17   am
     5    17    18    1
     6    18    19    1
     7    19    20    1
     8    20     1    1
     9     1     2   ar
    10     2     3   ar
    11     3     4   ar
    12     4     5   ar
    13     5     6   ar
    14     6     7   ar
    15     7     8   ar
    16     8     9   ar
    17     9    10    1
    18     9    11   ar
    19    11    27    1
    20    27    28   ar
    21    28    29   ar
    22    29    30   ar
    23    30    34    1
    24    34    35    1
    25    35    36   ar
    26    36    37   ar
    27    37    38   ar
    28    38    39   ar
    29    39    40   ar
    30    30    31   ar
    31    31    32   ar
    32    32    33    1
    33    11    12   ar
    34    12    13   ar
    35    13    14   ar
    36    20    21    1
    37    21    22    1
    38    21    23    1
    39    23    17    1
    40    14     1   ar
    41    14     4   ar
    42    13     7   ar
    43    32    27   ar
    44    40    35   ar
    45    25    26    1
@<TRIPOS>MOLECULE
*****
 40 45 0 0 0
SMALL
GASTEIGER

@<TRIPOS>ATOM
      1 N          63.2108   85.1600   15.3759 N.ar    1  UNL1       -0.3080
      2 C          63.2445   84.0916   16.4282 C.ar    1  UNL1        0.1786
      3 N          62.9290   82.7817   15.7689 N.ar    1  UNL1       -0.2223
      4 C          62.7003   83.0406   14.3092 C.ar    1  UNL1        0.1179
      5 C          62.3561   82.1278   13.1698 C.ar    1  UNL1        0.1194
      6 N          62.1859   82.6849   11.7875 N.ar    1  UNL1       -0.2421
      7 C          62.3601   84.1548   11.5446 C.ar    1  UNL1        0.0850
      8 C          62.1900   84.7120   10.1624 C.ar    1  UNL1        0.0488
      9 C          62.3642   86.1819    9.9195 C.ar    1  UNL1        0.1416
     10 F          62.1941   86.7390    8.5373 F       1  UNL1       -0.2041
     11 C          62.7084   87.0947   11.0589 C.ar    1  UNL1        0.0284
     12 C          62.8786   86.5376   12.4412 C.ar    1  UNL1        0.0052
     13 C          62.7044   85.0677   12.6841 C.ar    1  UNL1        0.0352
     14 C          62.8745   84.5105   14.0663 C.ar    1  UNL1        0.0819
     15 O          63.5351   91.7344   17.3567 O.2     1  UNL1       -0.2722
     16 C          64.2405   91.0059   16.2514 C.2     1  UNL1        0.2556
     17 N          63.9831   89.5444   16.0325 N.am    1  UNL1       -0.2746
     18 C          64.6885   88.8159   14.9272 C.3     1  UNL1        0.0956
     19 C          64.4310   87.3545   14.7084 C.3     1  UNL1        0.0470
     20 C          63.4682   86.6215   15.5948 C.3     1  UNL1        0.1228
     21 C          62.7628   87.3500   16.7001 C.3     1  UNL1        0.2012
     22 F          61.8000   86.6171   17.5865 F       1  UNL1       -0.2334
     23 C          63.0203   88.8115   16.9189 C.3     1  UNL1        0.1306
     24 C          65.2034   91.7387   15.3650 C.3     1  UNL1        0.2232
     25 O          65.7000   93.0981   15.7593 O.3     1  UNL1       -0.3737
     26 H          64.9614   93.7269   15.7517 H       1  UNL1        0.2110
     27 C          62.8826   88.5646   10.8160 C.ar    1  UNL1        0.0129
     28 C          63.9078   89.3368   11.5925 C.ar    1  UNL1        0.0040
     29 C          64.0820   90.8067   11.3496 C.ar    1  UNL1        0.0377
     30 C          63.2310   91.5045   10.3303 C.ar    1  UNL1        0.1495
     31 C          62.2058   90.7323    9.5539 C.ar    1  UNL1        0.0490
     32 C          62.0317   89.2624    9.7967 C.ar    1  UNL1        0.0608
     33 CL         61.0066   88.4902    9.0203 Cl      1  UNL1       -0.0821
     34 O          63.4051   92.9744   10.0874 O.3     1  UNL1       -0.4223
     35 C          64.7804   93.5728   10.0633 C.ar    1  UNL1        0.3246
     36 N          64.9501   95.0631   10.0659 N.ar    1  UNL1       -0.1924
     37 C          66.3254   95.6616   10.0418 C.ar    1  UNL1        0.1053
     38 C          67.5310   94.7695   10.0152 C.ar    1  UNL1        0.0416
     39 C          67.3614   93.2791   10.0126 C.ar    1  UNL1        0.1053
     40 N          65.9861   92.6808   10.0367 N.ar    1  UNL1       -0.1924
@<TRIPOS>BOND
     1    15    16    2
     2    16    24    1
     3    24    25    1
     4    16    17   am
     5    17    18    1
     6    18    19    1
     7    19    20    1
     8    20     1    1
     9     1     2   ar
    10     2     3   ar
    11     3     4   ar
    12     4     5   ar
    13     5     6   ar
    14     6     7   ar
    15     7     8   ar
    16     8     9   ar
    17     9    10    1
    18     9    11   ar
    19    11    27    1
    20    27    28   ar
    21    28    29   ar
    22    29    30   ar
    23    30    34    1
    24    34    35    1
    25    35    36   ar
    26    36    37   ar
    27    37    38   ar
    28    38    39   ar
    29    39    40   ar
    30    30    31   ar
    31    31    32   ar
    32    32    33    1
    33    11    12   ar
    34    12    13   ar
    35    13    14   ar
    36    20    21    1
    37    21    22    1
    38    21    23    1
    39    23    17    1
    40    14     1   ar
    41    14     4   ar
    42    13     7   ar
    43    32    27   ar
    44    40    35   ar
    45    25    26    1
@<TRIPOS>MOLECULE
*****
 40 45 0 0 0
SMALL
GASTEIGER

@<TRIPOS>ATOM
      1 N          62.4765   89.2427   11.9451 N.ar    1  UNL1       -0.3080
      2 C          62.3349   90.7265   12.1135 C.ar    1  UNL1        0.1786
      3 N          63.0269   91.1166   13.3859 N.ar    1  UNL1       -0.2223
      4 C          63.5961   89.8739   14.0038 C.ar    1  UNL1        0.1179
      5 C          64.3802   89.6473   15.2623 C.ar    1  UNL1        0.1194
      6 N          64.8242   88.2625   15.6303 N.ar    1  UNL1       -0.2421
      7 C          64.4840   87.1044   14.7398 C.ar    1  UNL1        0.0850
      8 C          64.9279   85.7197   15.1078 C.ar    1  UNL1        0.0488
      9 C          64.5877   84.5616   14.2173 C.ar    1  UNL1        0.1416
     10 F          65.0316   83.1768   14.5852 F       1  UNL1       -0.2041
     11 C          63.8036   84.7881   12.9588 C.ar    1  UNL1        0.0284
     12 C          63.3596   86.1729   12.5908 C.ar    1  UNL1        0.0052
     13 C          63.6998   87.3311   13.4813 C.ar    1  UNL1        0.0352
     14 C          63.2559   88.7158   13.1133 C.ar    1  UNL1        0.0819
     15 O          58.8388   86.0168    7.0859 O.2     1  UNL1       -0.2722
     16 C          60.3059   85.9867    7.3967 C.2     1  UNL1        0.2556
     17 N          60.8486   86.8007    8.5338 N.am    1  UNL1       -0.2746
     18 C          62.3157   86.7705    8.8446 C.3     1  UNL1        0.0956
     19 C          62.8583   87.5846    9.9817 C.3     1  UNL1        0.0470
     20 C          61.9338   88.4287   10.8080 C.3     1  UNL1        0.1228
     21 C          60.4667   88.4589   10.4972 C.3     1  UNL1        0.2012
     22 F          59.5421   89.3030   11.3234 F       1  UNL1       -0.2334
     23 C          59.9241   87.6448    9.3600 C.3     1  UNL1        0.1306
     24 C          61.2305   85.1426    6.5705 C.3     1  UNL1        0.2232
     25 O          60.7085   83.9222    5.8717 O.3     1  UNL1       -0.3737
     26 H          60.4337   83.2652    6.5302 H       1  UNL1        0.2110
     27 C          63.4634   83.6300   12.0683 C.ar    1  UNL1        0.0129
     28 C          63.9878   83.5846   10.6636 C.ar    1  UNL1        0.0040
     29 C          63.6476   82.4265    9.7731 C.ar    1  UNL1        0.0377
     30 C          62.7830   81.3137   10.2873 C.ar    1  UNL1        0.1495
     31 C          62.2586   81.3592   11.6919 C.ar    1  UNL1        0.0490
     32 C          62.5988   82.5173   12.5824 C.ar    1  UNL1        0.0608
     33 CL         62.0744   82.5627   13.9870 Cl      1  UNL1       -0.0821
     34 O          62.4428   80.1556    9.3968 O.3     1  UNL1       -0.4223
     35 C          63.0373   78.8045    9.6635 C.ar    1  UNL1        0.3246
     36 N          62.5125   77.9630   10.7888 N.ar    1  UNL1       -0.1924
     37 C          63.1071   76.6119   11.0555 C.ar    1  UNL1        0.1053
     38 C          64.2265   76.1024   10.1968 C.ar    1  UNL1        0.0416
     39 C          64.7513   76.9439    9.0715 C.ar    1  UNL1        0.1053
     40 N          64.1567   78.2950    8.8048 N.ar    1  UNL1       -0.1924
@<TRIPOS>BOND
     1    15    16    2
     2    16    24    1
     3    24    25    1
     4    16    17   am
     5    17    18    1
     6    18    19    1
     7    19    20    1
     8    20     1    1
     9     1     2   ar
    10     2     3   ar
    11     3     4   ar
    12     4     5   ar
    13     5     6   ar
    14     6     7   ar
    15     7     8   ar
    16     8     9   ar
    17     9    10    1
    18     9    11   ar
    19    11    27    1
    20    27    28   ar
    21    28    29   ar
    22    29    30   ar
    23    30    34    1
    24    34    35    1
    25    35    36   ar
    26    36    37   ar
    27    37    38   ar
    28    38    39   ar
    29    39    40   ar
    30    30    31   ar
    31    31    32   ar
    32    32    33    1
    33    11    12   ar
    34    12    13   ar
    35    13    14   ar
    36    20    21    1
    37    21    22    1
    38    21    23    1
    39    23    17    1
    40    14     1   ar
    41    14     4   ar
    42    13     7   ar
    43    32    27   ar
    44    40    35   ar
    45    25    26    1
@<TRIPOS>MOLECULE
*****
 40 45 0 0 0
SMALL
GASTEIGER

@<TRIPOS>ATOM
      1 N          63.1241   82.0932   14.0085 N.ar    1  UNL1       -0.3080
      2 C          63.2320   80.7475   14.6622 C.ar    1  UNL1        0.1786
      3 N          63.1811   79.7040   13.5859 N.ar    1  UNL1       -0.2223
      4 C          63.0416   80.4048   12.2670 C.ar    1  UNL1        0.1179
      5 C          62.9421   79.8891   10.8620 C.ar    1  UNL1        0.1194
      6 N          62.8074   80.8501    9.7181 N.ar    1  UNL1       -0.2421
      7 C          62.7722   82.3267    9.9793 C.ar    1  UNL1        0.0850
      8 C          62.6375   83.2877    8.8355 C.ar    1  UNL1        0.0488
      9 C          62.6022   84.7644    9.0967 C.ar    1  UNL1        0.1416
     10 F          62.4675   85.7253    7.9529 F       1  UNL1       -0.2041
     11 C          62.7017   85.2801   10.5017 C.ar    1  UNL1        0.0284
     12 C          62.8364   84.3191   11.6456 C.ar    1  UNL1        0.0052
     13 C          62.8717   82.8424   11.3844 C.ar    1  UNL1        0.0352
     14 C          63.0064   81.8815   12.5282 C.ar    1  UNL1        0.0819
     15 O          64.1477   88.4470   16.4237 O.2     1  UNL1       -0.2722
     16 C          63.1570   87.3931   16.8212 C.2     1  UNL1        0.2556
     17 N          63.1488   86.0681   16.1180 N.am    1  UNL1       -0.2746
     18 C          62.1581   85.0143   16.5155 C.3     1  UNL1        0.0956
     19 C          62.1499   83.6893   15.8123 C.3     1  UNL1        0.0470
     20 C          63.1323   83.4182   14.7117 C.3     1  UNL1        0.1228
     21 C          64.1230   84.4721   14.3142 C.3     1  UNL1        0.2012
     22 F          65.1054   84.2010   13.2136 F       1  UNL1       -0.2334
     23 C          64.1311   85.7970   15.0174 C.3     1  UNL1        0.1306
     24 C          62.1746   87.6641   17.9218 C.3     1  UNL1        0.2232
     25 O          62.4681   87.2041   19.3190 O.3     1  UNL1       -0.3737
     26 H          62.4775   86.2345   19.3449 H       1  UNL1        0.2110
     27 C          62.6665   86.7567   10.7629 C.ar    1  UNL1        0.0129
     28 C          63.4308   87.3325   11.9181 C.ar    1  UNL1        0.0040
     29 C          63.3956   88.8091   12.1793 C.ar    1  UNL1        0.0377
     30 C          62.5960   89.7101   11.2853 C.ar    1  UNL1        0.1495
     31 C          61.8317   89.1343   10.1302 C.ar    1  UNL1        0.0490
     32 C          61.8670   87.6576    9.8690 C.ar    1  UNL1        0.0608
     33 CL         61.1027   87.0819    8.7139 Cl      1  UNL1       -0.0821
     34 O          62.5608   91.1867   11.5465 O.3     1  UNL1       -0.4223
     35 C          63.8392   91.9405   11.7645 C.ar    1  UNL1        0.3246
     36 N          64.4585   91.9877   13.1298 N.ar    1  UNL1       -0.1924
     37 C          65.7370   92.7415   13.3478 C.ar    1  UNL1        0.1053
     38 C          66.3960   93.4481   12.2005 C.ar    1  UNL1        0.0416
     39 C          65.7766   93.4008   10.8351 C.ar    1  UNL1        0.1053
     40 N          64.4982   92.6471   10.6172 N.ar    1  UNL1       -0.1924
@<TRIPOS>BOND
     1    15    16    2
     2    16    24    1
     3    24    25    1
     4    16    17   am
     5    17    18    1
     6    18    19    1
     7    19    20    1
     8    20     1    1
     9     1     2   ar
    10     2     3   ar
    11     3     4   ar
    12     4     5   ar
    13     5     6   ar
    14     6     7   ar
    15     7     8   ar
    16     8     9   ar
    17     9    10    1
    18     9    11   ar
    19    11    27    1
    20    27    28   ar
    21    28    29   ar
    22    29    30   ar
    23    30    34    1
    24    34    35    1
    25    35    36   ar
    26    36    37   ar
    27    37    38   ar
    28    38    39   ar
    29    39    40   ar
    30    30    31   ar
    31    31    32   ar
    32    32    33    1
    33    11    12   ar
    34    12    13   ar
    35    13    14   ar
    36    20    21    1
    37    21    22    1
    38    21    23    1
    39    23    17    1
    40    14     1   ar
    41    14     4   ar
    42    13     7   ar
    43    32    27   ar
    44    40    35   ar
    45    25    26    1
