@<TRIPOS>MOLECULE
*****
 30 33 0 0 0
SMALL
GASTEIGER

@<TRIPOS>ATOM
      1 C          63.8302   90.8891   14.8930 C.2     1  UNL1        0.3440
      2 N          62.7878   89.9238   14.4116 N.2     1  UNL1        0.0036
      3 C          62.5420   89.7573   12.9413 C.2     1  UNL1        0.3646
      4 N          61.5885   88.8890   12.1751 N.2     1  UNL1       -0.0365
      5 C          61.7957   89.1511   10.7128 C.2     1  UNL1        0.2073
      6 C          62.8772   90.1813   10.5752 C.2     1  UNL1        0.0401
      7 C          63.3384   90.5560   11.9525 C.3     1  UNL1        0.1775
      8 C          64.3808   91.5212   12.4340 C.ar    1  UNL1        0.0793
      9 C          64.6266   91.6877   13.9043 C.ar    1  UNL1        0.1773
     10 N          65.7123   92.7078   14.0801 N.ar    1  UNL1       -0.2167
     11 C          66.1374   93.1716   12.7184 C.ar    1  UNL1        0.1786
     12 N          65.3145   92.4383   11.7011 N.ar    1  UNL1       -0.3094
     13 C          65.4087   92.5946   10.2123 C.3     1  UNL1        0.1318
     14 C          61.0520   88.4977    9.5859 C.ar    1  UNL1        0.1235
     15 C          61.0632   87.0042    9.4461 C.ar    1  UNL1        0.0229
     16 C          60.3194   86.3509    8.3192 C.ar    1  UNL1        0.0029
     17 C          59.5644   87.1909    7.3321 C.ar    1  UNL1        0.0165
     18 C          59.5532   88.6843    7.4718 C.ar    1  UNL1        0.0789
     19 N          60.2970   89.3377    8.5988 N.ar    1  UNL1       -0.2442
     20 C          58.7983   89.5244    6.4848 C.3     1  UNL1        0.1358
     21 N          59.5126   90.5868    5.7030 N.am    1  UNL1       -0.2971
     22 C          58.7309   91.6743    5.0276 C.2     1  UNL1        0.2530
     23 O          57.2349   91.6995    5.1340 O.2     1  UNL1       -0.2724
     24 H          60.4945   90.5703    5.6333 H       1  UNL1        0.1499
     25 C          59.4452   92.7368    4.2459 C.3     1  UNL1        0.2270
     26 O          59.3370   92.7678    2.7502 O.3     1  UNL1       -0.3418
     27 C          60.1321   93.7656    1.9613 C.3     1  UNL1        0.1748
     28 C          64.5547   92.3723   16.8994 C.3     1  UNL1        0.2504
     29 N          64.0761   91.0556   16.3634 N.pl3   1  UNL1       -0.2137
     30 H          63.9233   90.3008   16.9767 H       1  UNL1        0.2924
@<TRIPOS>BOND
     1    28    29    1
     2    29     1    1
     3     1     2    2
     4     2     3    1
     5     3     4    2
     6     4     5    1
     7     5    14    1
     8    14    15   ar
     9    15    16   ar
    10    16    17   ar
    11    17    18   ar
    12    18    20    1
    13    20    21    1
    14    21    22   am
    15    22    23    2
    16    22    25    1
    17    25    26    1
    18    26    27    1
    19    18    19   ar
    20     5     6    2
    21     6     7    1
    22     7     8    1
    23     8     9   ar
    24     9    10   ar
    25    10    11   ar
    26    11    12   ar
    27    12    13    1
    28     9     1    1
    29     7     3    1
    30    12     8   ar
    31    19    14   ar
    32    29    30    1
    33    21    24    1
@<TRIPOS>MOLECULE
*****
 30 33 0 0 0
SMALL
GASTEIGER

@<TRIPOS>ATOM
      1 C          59.7434   88.8158    7.9741 C.2     1  UNL1        0.3440
      2 N          60.1575   89.9757    8.8305 N.2     1  UNL1        0.0036
      3 C          61.1781   89.7823    9.9125 C.2     1  UNL1        0.3646
      4 N          61.7785   90.7311   10.9072 N.2     1  UNL1       -0.0365
      5 C          62.7561   89.9643   11.7476 C.2     1  UNL1        0.2073
      6 C          62.7599   88.5415   11.2724 C.2     1  UNL1        0.0401
      7 C          61.7846   88.4290   10.1383 C.3     1  UNL1        0.1775
      8 C          61.3705   87.2692    9.2819 C.ar    1  UNL1        0.0793
      9 C          60.3499   87.4626    8.1998 C.ar    1  UNL1        0.1773
     10 N          60.1402   86.1425    7.5192 N.ar    1  UNL1       -0.2167
     11 C          61.0312   85.1332    8.1806 C.ar    1  UNL1        0.1786
     12 N          61.7916   85.8296    9.2700 N.ar    1  UNL1       -0.3094
     13 C          62.7966   85.1973   10.1866 C.3     1  UNL1        0.1318
     14 C          63.5844   90.5222   12.8667 C.ar    1  UNL1        0.1235
     15 C          63.3778   90.0321   14.2693 C.ar    1  UNL1        0.0229
     16 C          64.2062   90.5901   15.3884 C.ar    1  UNL1        0.0029
     17 C          65.2412   91.6382   15.1050 C.ar    1  UNL1        0.0165
     18 C          65.4478   92.1283   13.7025 C.ar    1  UNL1        0.0789
     19 N          64.6194   91.5703   12.5834 N.ar    1  UNL1       -0.2442
     20 C          66.4828   93.1764   13.4191 C.3     1  UNL1        0.1358
     21 N          67.1098   93.2627   12.0592 N.am    1  UNL1       -0.2971
     22 C          66.7850   94.4148   11.1553 C.2     1  UNL1        0.2530
     23 O          65.8332   95.4807   11.6113 O.2     1  UNL1       -0.2724
     24 H          67.7345   92.5631   11.7599 H       1  UNL1        0.1499
     25 C          67.4120   94.5012    9.7953 C.3     1  UNL1        0.2270
     26 O          68.7401   93.8528    9.5392 O.3     1  UNL1       -0.3418
     27 C          68.8008   92.4413    9.0353 C.3     1  UNL1        0.1748
     28 C          58.9044   90.0971    5.8754 C.3     1  UNL1        0.2504
     29 N          58.7227   89.0092    6.8920 N.pl3   1  UNL1       -0.2137
     30 H          57.9336   88.4221    6.8490 H       1  UNL1        0.2924
@<TRIPOS>BOND
     1    28    29    1
     2    29     1    1
     3     1     2    2
     4     2     3    1
     5     3     4    2
     6     4     5    1
     7     5    14    1
     8    14    15   ar
     9    15    16   ar
    10    16    17   ar
    11    17    18   ar
    12    18    20    1
    13    20    21    1
    14    21    22   am
    15    22    23    2
    16    22    25    1
    17    25    26    1
    18    26    27    1
    19    18    19   ar
    20     5     6    2
    21     6     7    1
    22     7     8    1
    23     8     9   ar
    24     9    10   ar
    25    10    11   ar
    26    11    12   ar
    27    12    13    1
    28     9     1    1
    29     7     3    1
    30    12     8   ar
    31    19    14   ar
    32    29    30    1
    33    21    24    1
@<TRIPOS>MOLECULE
*****
 30 33 0 0 0
SMALL
GASTEIGER

@<TRIPOS>ATOM
      1 C          62.6493   84.9110   11.7338 C.2     1  UNL1        0.3440
      2 N          63.3719   85.4570   12.9296 N.2     1  UNL1        0.0036
      3 C          63.4964   86.9399   13.1179 C.2     1  UNL1        0.3646
      4 N          64.1462   87.7645   14.1892 N.2     1  UNL1       -0.0365
      5 C          63.9499   89.2109   13.8440 C.2     1  UNL1        0.2073
      6 C          63.1786   89.2803   12.5593 C.2     1  UNL1        0.0401
      7 C          62.8983   87.8767   12.1106 C.3     1  UNL1        0.1775
      8 C          62.1758   87.3306   10.9148 C.ar    1  UNL1        0.0793
      9 C          62.0513   85.8477   10.7265 C.ar    1  UNL1        0.1773
     10 N          61.2878   85.6041    9.4585 N.ar    1  UNL1       -0.2167
     11 C          60.9403   86.9364    8.8633 C.ar    1  UNL1        0.1786
     12 N          61.4892   88.0034    9.7634 N.ar    1  UNL1       -0.3094
     13 C          61.3720   89.4834    9.5495 C.3     1  UNL1        0.1318
     14 C          64.4389   90.3824   14.6431 C.ar    1  UNL1        0.1235
     15 C          63.8916   90.6341   16.0168 C.ar    1  UNL1        0.0229
     16 C          64.3807   91.8056   16.8158 C.ar    1  UNL1        0.0029
     17 C          65.4169   92.7254   16.2412 C.ar    1  UNL1        0.0165
     18 C          65.9642   92.4737   14.8675 C.ar    1  UNL1        0.0789
     19 N          65.4751   91.3022   14.0684 N.ar    1  UNL1       -0.2442
     20 C          67.0004   93.3934   14.2928 C.3     1  UNL1        0.1358
     21 N          66.6046   94.4347   13.2882 N.am    1  UNL1       -0.2971
     22 C          66.6004   94.1023   11.8255 C.2     1  UNL1        0.2530
     23 O          66.9920   92.7287   11.3674 O.2     1  UNL1       -0.2724
     24 H          66.3476   95.3362   13.5889 H       1  UNL1        0.1499
     25 C          66.2046   95.1436   10.8208 C.3     1  UNL1        0.2270
     26 O          67.2208   95.6801    9.8568 O.3     1  UNL1       -0.3418
     27 C          67.6203   94.8691    8.6598 C.3     1  UNL1        0.1748
     28 C          63.6214   82.6638   10.8645 C.3     1  UNL1        0.2504
     29 N          62.5248   83.4280   11.5454 N.pl3   1  UNL1       -0.2137
     30 H          61.7235   82.9563   11.8686 H       1  UNL1        0.2924
@<TRIPOS>BOND
     1    28    29    1
     2    29     1    1
     3     1     2    2
     4     2     3    1
     5     3     4    2
     6     4     5    1
     7     5    14    1
     8    14    15   ar
     9    15    16   ar
    10    16    17   ar
    11    17    18   ar
    12    18    20    1
    13    20    21    1
    14    21    22   am
    15    22    23    2
    16    22    25    1
    17    25    26    1
    18    26    27    1
    19    18    19   ar
    20     5     6    2
    21     6     7    1
    22     7     8    1
    23     8     9   ar
    24     9    10   ar
    25    10    11   ar
    26    11    12   ar
    27    12    13    1
    28     9     1    1
    29     7     3    1
    30    12     8   ar
    31    19    14   ar
    32    29    30    1
    33    21    24    1
@<TRIPOS>MOLECULE
*****
 30 33 0 0 0
SMALL
GASTEIGER

@<TRIPOS>ATOM
      1 C          61.8013   86.2746   10.2572 C.2     1  UNL1        0.3440
      2 N          61.9805   87.7377   10.5356 N.2     1  UNL1        0.0036
      3 C          62.7318   88.1824   11.7554 C.2     1  UNL1        0.3646
      4 N          63.0659   89.5446   12.2871 N.2     1  UNL1       -0.0365
      5 C          63.8444   89.3683   13.5570 C.2     1  UNL1        0.2073
      6 C          63.9915   87.8971   13.8102 C.2     1  UNL1        0.0401
      7 C          63.3038   87.1642   12.6966 C.3     1  UNL1        0.1775
      8 C          63.1246   85.7012   12.4182 C.ar    1  UNL1        0.0793
      9 C          62.3734   85.2565   11.1984 C.ar    1  UNL1        0.1773
     10 N          62.3570   83.7565   11.1855 N.ar    1  UNL1       -0.2167
     11 C          63.0981   83.2744   12.3972 C.ar    1  UNL1        0.1786
     12 N          63.5725   84.4763   13.1591 N.ar    1  UNL1       -0.3094
     13 C          64.3571   84.4566   14.4374 C.3     1  UNL1        0.1318
     14 C          64.3816   90.4698   14.4220 C.ar    1  UNL1        0.1235
     15 C          63.8839   90.6298   15.8280 C.ar    1  UNL1        0.0229
     16 C          64.4212   91.7313   16.6929 C.ar    1  UNL1        0.0029
     17 C          65.4561   92.6727   16.1520 C.ar    1  UNL1        0.0165
     18 C          65.9538   92.5127   14.7460 C.ar    1  UNL1        0.0789
     19 N          65.4165   91.4112   13.8811 N.ar    1  UNL1       -0.2442
     20 C          66.9887   93.4541   14.2050 C.3     1  UNL1        0.1358
     21 N          66.5997   94.5013   13.2040 N.am    1  UNL1       -0.2971
     22 C          66.6433   94.1899   11.7374 C.2     1  UNL1        0.2530
     23 O          67.0760   92.8313   11.2717 O.2     1  UNL1       -0.2724
     24 H          66.3157   95.3931   13.5097 H       1  UNL1        0.1499
     25 C          66.2544   95.2371   10.7363 C.3     1  UNL1        0.2270
     26 O          67.2511   95.7103    9.7202 O.3     1  UNL1       -0.3418
     27 C          67.4324   94.9528    8.4382 C.3     1  UNL1        0.1748
     28 C          60.0741   86.7583    8.3775 C.3     1  UNL1        0.2504
     29 N          61.0500   85.8298    9.0374 N.pl3   1  UNL1       -0.2137
     30 H          61.1975   84.9284    8.6699 H       1  UNL1        0.2924
@<TRIPOS>BOND
     1    28    29    1
     2    29     1    1
     3     1     2    2
     4     2     3    1
     5     3     4    2
     6     4     5    1
     7     5    14    1
     8    14    15   ar
     9    15    16   ar
    10    16    17   ar
    11    17    18   ar
    12    18    20    1
    13    20    21    1
    14    21    22   am
    15    22    23    2
    16    22    25    1
    17    25    26    1
    18    26    27    1
    19    18    19   ar
    20     5     6    2
    21     6     7    1
    22     7     8    1
    23     8     9   ar
    24     9    10   ar
    25    10    11   ar
    26    11    12   ar
    27    12    13    1
    28     9     1    1
    29     7     3    1
    30    12     8   ar
    31    19    14   ar
    32    29    30    1
    33    21    24    1
@<TRIPOS>MOLECULE
*****
 30 33 0 0 0
SMALL
GASTEIGER

@<TRIPOS>ATOM
      1 C          59.6281   88.7566    7.7393 C.2     1  UNL1        0.3440
      2 N          59.9426   89.8202    8.7493 N.2     1  UNL1        0.0036
      3 C          60.9248   89.5435    9.8487 C.2     1  UNL1        0.3646
      4 N          61.4305   90.3897   10.9792 N.2     1  UNL1       -0.0365
      5 C          62.4107   89.5725   11.7674 C.2     1  UNL1        0.2073
      6 C          62.5108   88.2212   11.1240 C.2     1  UNL1        0.0401
      7 C          61.5925   88.2033    9.9381 C.3     1  UNL1        0.1775
      8 C          61.2779   87.1397    8.9282 C.ar    1  UNL1        0.0793
      9 C          60.2957   87.4164    7.8288 C.ar    1  UNL1        0.1773
     10 N          60.1862   86.1820    6.9837 N.ar    1  UNL1       -0.2167
     11 C          61.1006   85.1424    7.5608 C.ar    1  UNL1        0.1786
     12 N          61.7754   85.7343    8.7626 N.ar    1  UNL1       -0.3094
     13 C          62.7725   85.0423    9.6439 C.3     1  UNL1        0.1318
     14 C          63.1594   90.0268   12.9853 C.ar    1  UNL1        0.1235
     15 C          64.1877   91.1129   12.8717 C.ar    1  UNL1        0.0229
     16 C          64.9363   91.5672   14.0896 C.ar    1  UNL1        0.0029
     17 C          64.6567   90.9353   15.4210 C.ar    1  UNL1        0.0165
     18 C          63.6284   89.8491   15.5345 C.ar    1  UNL1        0.0789
     19 N          62.8798   89.3949   14.3166 N.ar    1  UNL1       -0.2442
     20 C          63.3488   89.2172   16.8658 C.3     1  UNL1        0.1358
     21 N          62.6409   87.8966   16.9352 N.am    1  UNL1       -0.2971
     22 C          63.2732   86.6745   16.3380 C.2     1  UNL1        0.2530
     23 O          64.6134   86.7730   15.6715 O.2     1  UNL1       -0.2724
     24 H          61.7613   87.8319   17.3727 H       1  UNL1        0.1499
     25 C          62.5654   85.3537   16.4074 C.3     1  UNL1        0.2270
     26 O          62.0404   84.7175   15.1546 O.3     1  UNL1       -0.3418
     27 C          62.3477   83.2795   14.8582 C.3     1  UNL1        0.1748
     28 C          58.7869   90.2692    5.8016 C.3     1  UNL1        0.2504
     29 N          58.6458   89.0333    6.6399 N.pl3   1  UNL1       -0.2137
     30 H          57.9086   88.4037    6.4685 H       1  UNL1        0.2924
@<TRIPOS>BOND
     1    28    29    1
     2    29     1    1
     3     1     2    2
     4     2     3    1
     5     3     4    2
     6     4     5    1
     7     5    14    1
     8    14    15   ar
     9    15    16   ar
    10    16    17   ar
    11    17    18   ar
    12    18    20    1
    13    20    21    1
    14    21    22   am
    15    22    23    2
    16    22    25    1
    17    25    26    1
    18    26    27    1
    19    18    19   ar
    20     5     6    2
    21     6     7    1
    22     7     8    1
    23     8     9   ar
    24     9    10   ar
    25    10    11   ar
    26    11    12   ar
    27    12    13    1
    28     9     1    1
    29     7     3    1
    30    12     8   ar
    31    19    14   ar
    32    29    30    1
    33    21    24    1
@<TRIPOS>MOLECULE
*****
 30 33 0 0 0
SMALL
GASTEIGER

@<TRIPOS>ATOM
      1 C          63.2655   81.4405   10.6474 C.2     1  UNL1        0.3440
      2 N          63.3207   82.7353    9.8920 N.2     1  UNL1        0.0036
      3 C          63.0645   84.0305   10.6041 C.2     1  UNL1        0.3646
      4 N          63.0504   85.4524   10.1269 N.2     1  UNL1       -0.0365
      5 C          62.7304   86.3316   11.2993 C.2     1  UNL1        0.2073
      6 C          62.5467   85.4530   12.5011 C.2     1  UNL1        0.0401
      7 C          62.7532   84.0308   12.0714 C.3     1  UNL1        0.1775
      8 C          62.6981   82.7360   12.8267 C.ar    1  UNL1        0.0793
      9 C          62.9542   81.4409   12.1147 C.ar    1  UNL1        0.1773
     10 N          62.8321   80.3299   13.1151 N.ar    1  UNL1       -0.2167
     11 C          62.5005   80.9384   14.4454 C.ar    1  UNL1        0.1786
     12 N          62.4177   82.4255   14.2672 N.ar    1  UNL1       -0.3094
     13 C          62.1087   83.4263   15.3409 C.3     1  UNL1        0.1318
     14 C          62.6143   87.8269   11.2743 C.ar    1  UNL1        0.1235
     15 C          61.9655   88.5095   10.1068 C.ar    1  UNL1        0.0229
     16 C          61.8495   90.0048   10.0819 C.ar    1  UNL1        0.0029
     17 C          62.3823   90.8176   11.2245 C.ar    1  UNL1        0.0165
     18 C          63.0312   90.1350   12.3920 C.ar    1  UNL1        0.0789
     19 N          63.1472   88.6397   12.4169 N.ar    1  UNL1       -0.2442
     20 C          63.5640   90.9477   13.5346 C.3     1  UNL1        0.1358
     21 N          65.0127   90.8517   13.9118 N.am    1  UNL1       -0.2971
     22 C          65.9690   91.9298   13.4956 C.2     1  UNL1        0.2530
     23 O          65.4767   93.1037   12.7022 O.2     1  UNL1       -0.2724
     24 H          65.3357   90.0812   14.4325 H       1  UNL1        0.1499
     25 C          67.4177   91.8339   13.8727 C.3     1  UNL1        0.2270
     26 O          68.1678   93.0649   14.2873 O.3     1  UNL1       -0.3418
     27 C          68.7417   93.1634   15.6697 C.3     1  UNL1        0.1748
     28 C          62.3855   79.2077    9.6521 C.3     1  UNL1        0.2504
     29 N          63.5216   80.1453    9.9353 N.pl3   1  UNL1       -0.2137
     30 H          64.4354   79.9106    9.6539 H       1  UNL1        0.2924
@<TRIPOS>BOND
     1    28    29    1
     2    29     1    1
     3     1     2    2
     4     2     3    1
     5     3     4    2
     6     4     5    1
     7     5    14    1
     8    14    15   ar
     9    15    16   ar
    10    16    17   ar
    11    17    18   ar
    12    18    20    1
    13    20    21    1
    14    21    22   am
    15    22    23    2
    16    22    25    1
    17    25    26    1
    18    26    27    1
    19    18    19   ar
    20     5     6    2
    21     6     7    1
    22     7     8    1
    23     8     9   ar
    24     9    10   ar
    25    10    11   ar
    26    11    12   ar
    27    12    13    1
    28     9     1    1
    29     7     3    1
    30    12     8   ar
    31    19    14   ar
    32    29    30    1
    33    21    24    1
@<TRIPOS>MOLECULE
*****
 30 33 0 0 0
SMALL
GASTEIGER

@<TRIPOS>ATOM
      1 C          59.7134   88.3821    7.8984 C.2     1  UNL1        0.3440
      2 N          60.2398   86.9776    7.8727 N.2     1  UNL1        0.0036
      3 C          61.0109   86.4443    9.0436 C.2     1  UNL1        0.3646
      4 N          61.6478   85.1111    9.3026 N.2     1  UNL1       -0.0365
      5 C          62.2861   85.1582   10.6592 C.2     1  UNL1        0.2073
      6 C          62.0438   86.5204   11.2386 C.2     1  UNL1        0.0401
      7 C          61.2556   87.3153   10.2400 C.3     1  UNL1        0.1775
      8 C          60.7292   88.7196   10.2657 C.ar    1  UNL1        0.0793
      9 C          59.9581   89.2530    9.0948 C.ar    1  UNL1        0.1773
     10 N          59.5651   90.6672    9.4041 N.ar    1  UNL1       -0.2167
     11 C          60.0933   91.0078   10.7661 C.ar    1  UNL1        0.1786
     12 N          60.8128   89.8042   11.2985 N.ar    1  UNL1       -0.3094
     13 C          61.4959   89.7028   12.6301 C.3     1  UNL1        0.1318
     14 C          63.0353   84.0395   11.3204 C.ar    1  UNL1        0.1235
     15 C          63.5804   82.9114   10.4956 C.ar    1  UNL1        0.0229
     16 C          64.3296   81.7927   11.1569 C.ar    1  UNL1        0.0029
     17 C          64.5337   81.8020   12.6429 C.ar    1  UNL1        0.0165
     18 C          63.9886   82.9301   13.4677 C.ar    1  UNL1        0.0789
     19 N          63.2394   84.0488   12.8064 N.ar    1  UNL1       -0.2442
     20 C          64.1926   82.9395   14.9537 C.3     1  UNL1        0.1358
     21 N          64.4032   84.2385   15.6735 N.am    1  UNL1       -0.2971
     22 C          63.2274   85.1028   16.0208 C.2     1  UNL1        0.2530
     23 O          61.8410   84.6679   15.6483 O.2     1  UNL1       -0.2724
     24 H          65.3132   84.5239   15.9180 H       1  UNL1        0.1499
     25 C          63.4380   86.4018   16.7406 C.3     1  UNL1        0.2270
     26 O          63.4650   87.6895   15.9718 O.3     1  UNL1       -0.3418
     27 C          63.0956   88.9756   16.6497 C.3     1  UNL1        0.1748
     28 C          59.4941   90.0540    5.9219 C.3     1  UNL1        0.2504
     29 N          58.9422   88.9155    6.7275 N.pl3   1  UNL1       -0.2137
     30 H          58.0738   88.5183    6.4879 H       1  UNL1        0.2924
@<TRIPOS>BOND
     1    28    29    1
     2    29     1    1
     3     1     2    2
     4     2     3    1
     5     3     4    2
     6     4     5    1
     7     5    14    1
     8    14    15   ar
     9    15    16   ar
    10    16    17   ar
    11    17    18   ar
    12    18    20    1
    13    20    21    1
    14    21    22   am
    15    22    23    2
    16    22    25    1
    17    25    26    1
    18    26    27    1
    19    18    19   ar
    20     5     6    2
    21     6     7    1
    22     7     8    1
    23     8     9   ar
    24     9    10   ar
    25    10    11   ar
    26    11    12   ar
    27    12    13    1
    28     9     1    1
    29     7     3    1
    30    12     8   ar
    31    19    14   ar
    32    29    30    1
    33    21    24    1
@<TRIPOS>MOLECULE
*****
 30 33 0 0 0
SMALL
GASTEIGER

@<TRIPOS>ATOM
      1 C          60.5835   88.3975    9.2585 C.2     1  UNL1        0.3440
      2 N          61.1106   89.7738    9.5383 N.2     1  UNL1        0.0036
      3 C          62.1518   89.9768   10.5989 C.2     1  UNL1        0.3646
      4 N          62.8540   91.2064   11.0936 N.2     1  UNL1       -0.0365
      5 C          63.8021   90.7933   12.1801 C.2     1  UNL1        0.2073
      6 C          63.6857   89.3083   12.3569 C.2     1  UNL1        0.0401
      7 C          62.6658   88.8036   11.3796 C.3     1  UNL1        0.1775
      8 C          62.1386   87.4275   11.0998 C.ar    1  UNL1        0.0793
      9 C          61.0975   87.2245   10.0392 C.ar    1  UNL1        0.1773
     10 N          60.7686   85.7619    9.9866 N.ar    1  UNL1       -0.2167
     11 C          61.6064   85.0610   11.0146 C.ar    1  UNL1        0.1786
     12 N          62.4532   86.0904   11.7026 N.ar    1  UNL1       -0.3094
     13 C          63.4410   85.8287   12.8006 C.3     1  UNL1        0.1318
     14 C          64.7075   91.7050   12.9540 C.ar    1  UNL1        0.1235
     15 C          65.1359   91.3346   14.3429 C.ar    1  UNL1        0.0229
     16 C          66.0413   92.2464   15.1168 C.ar    1  UNL1        0.0029
     17 C          66.5184   93.5286   14.5017 C.ar    1  UNL1        0.0165
     18 C          66.0901   93.8990   13.1127 C.ar    1  UNL1        0.0789
     19 N          65.1846   92.9872   12.3389 N.ar    1  UNL1       -0.2442
     20 C          66.5671   95.1812   12.4976 C.3     1  UNL1        0.1358
     21 N          67.2054   95.1698   11.1402 N.am    1  UNL1       -0.2971
     22 C          66.3963   95.5243    9.9279 C.2     1  UNL1        0.2530
     23 O          64.9489   95.8902   10.0730 O.2     1  UNL1       -0.2724
     24 H          68.1554   94.9296   11.0450 H       1  UNL1        0.1499
     25 C          67.0346   95.5129    8.5705 C.3     1  UNL1        0.2270
     26 O          67.5465   94.2266    7.9932 O.3     1  UNL1       -0.3418
     27 C          68.1148   93.1727    8.8968 C.3     1  UNL1        0.1748
     28 C          59.3931   86.8546    7.5402 C.3     1  UNL1        0.2504
     29 N          59.5423   88.1945    8.1979 N.pl3   1  UNL1       -0.2137
     30 H          58.9570   88.9406    7.9335 H       1  UNL1        0.2924
@<TRIPOS>BOND
     1    28    29    1
     2    29     1    1
     3     1     2    2
     4     2     3    1
     5     3     4    2
     6     4     5    1
     7     5    14    1
     8    14    15   ar
     9    15    16   ar
    10    16    17   ar
    11    17    18   ar
    12    18    20    1
    13    20    21    1
    14    21    22   am
    15    22    23    2
    16    22    25    1
    17    25    26    1
    18    26    27    1
    19    18    19   ar
    20     5     6    2
    21     6     7    1
    22     7     8    1
    23     8     9   ar
    24     9    10   ar
    25    10    11   ar
    26    11    12   ar
    27    12    13    1
    28     9     1    1
    29     7     3    1
    30    12     8   ar
    31    19    14   ar
    32    29    30    1
    33    21    24    1
@<TRIPOS>MOLECULE
*****
 30 33 0 0 0
SMALL
GASTEIGER

@<TRIPOS>ATOM
      1 C          62.9729   81.8752   12.4973 C.2     1  UNL1        0.3440
      2 N          62.4234   82.6567   11.3407 N.2     1  UNL1        0.0036
      3 C          62.4048   84.1558   11.3899 C.2     1  UNL1        0.3646
      4 N          61.9288   85.1862   10.4093 N.2     1  UNL1       -0.0365
      5 C          62.1654   86.5407   11.0088 C.2     1  UNL1        0.2073
      6 C          62.7875   86.3473   12.3599 C.2     1  UNL1        0.0401
      7 C          62.9355   84.8733   12.5954 C.3     1  UNL1        0.1775
      8 C          63.4849   84.0919   13.7519 C.ar    1  UNL1        0.0793
      9 C          63.5036   82.5928   13.7027 C.ar    1  UNL1        0.1773
     10 N          64.1026   82.0945   14.9846 N.ar    1  UNL1       -0.2167
     11 C          64.4540   83.2856   15.8259 C.ar    1  UNL1        0.1786
     12 N          64.0723   84.5200   15.0640 N.ar    1  UNL1       -0.3094
     13 C          64.2472   85.9343   15.5321 C.3     1  UNL1        0.1318
     14 C          61.8373   87.8574   10.3695 C.ar    1  UNL1        0.1235
     15 C          60.6541   87.9730    9.4549 C.ar    1  UNL1        0.0229
     16 C          60.3261   89.2897    8.8156 C.ar    1  UNL1        0.0029
     17 C          61.1814   90.4909    9.0909 C.ar    1  UNL1        0.0165
     18 C          62.3646   90.3753   10.0055 C.ar    1  UNL1        0.0789
     19 N          62.6926   89.0585   10.6448 N.ar    1  UNL1       -0.2442
     20 C          63.2199   91.5764   10.2809 C.3     1  UNL1        0.1358
     21 N          64.2121   91.5486   11.4055 N.am    1  UNL1       -0.2971
     22 C          65.3283   92.5497   11.4458 C.2     1  UNL1        0.2530
     23 O          65.4525   93.5786   10.3615 O.2     1  UNL1       -0.2724
     24 H          64.1306   90.8732   12.1172 H       1  UNL1        0.1499
     25 C          66.3206   92.5220   12.5705 C.3     1  UNL1        0.2270
     26 O          66.4793   93.7190   13.4603 O.3     1  UNL1       -0.3418
     27 C          67.0519   93.5591   14.8375 C.3     1  UNL1        0.1748
     28 C          62.1425   79.5839   13.3976 C.3     1  UNL1        0.2504
     29 N          62.9916   80.3761   12.4481 N.pl3   1  UNL1       -0.2137
     30 H          63.5612   79.9121   11.7927 H       1  UNL1        0.2924
@<TRIPOS>BOND
     1    28    29    1
     2    29     1    1
     3     1     2    2
     4     2     3    1
     5     3     4    2
     6     4     5    1
     7     5    14    1
     8    14    15   ar
     9    15    16   ar
    10    16    17   ar
    11    17    18   ar
    12    18    20    1
    13    20    21    1
    14    21    22   am
    15    22    23    2
    16    22    25    1
    17    25    26    1
    18    26    27    1
    19    18    19   ar
    20     5     6    2
    21     6     7    1
    22     7     8    1
    23     8     9   ar
    24     9    10   ar
    25    10    11   ar
    26    11    12   ar
    27    12    13    1
    28     9     1    1
    29     7     3    1
    30    12     8   ar
    31    19    14   ar
    32    29    30    1
    33    21    24    1
