@<TRIPOS>MOLECULE
*****
 32 36 0 0 0
SMALL
GASTEIGER

@<TRIPOS>ATOM
      1 C          63.4466   85.5904   14.3714 C.3     1  UNL1        0.0933
      2 C          63.9951   86.6312   13.4408 C.3     1  UNL1        0.0442
      3 C          64.1512   88.0479   13.9083 C.3     1  UNL1        0.0953
      4 N          63.7590   88.4239   15.3065 N.am    1  UNL1       -0.2794
      5 C          63.9151   89.8406   15.7740 C.2     1  UNL1        0.2252
      6 O          63.5228   90.2165   17.1721 O.2     1  UNL1       -0.2749
      7 C          63.2105   87.3831   16.2370 C.3     1  UNL1        0.0953
      8 C          63.0543   85.9664   15.7695 C.3     1  UNL1        0.0442
      9 C          62.5983   80.3789   14.3347 C.3     1  UNL1        0.1351
     10 N          62.9005   81.7783   13.8870 N.ar    1  UNL1       -0.2779
     11 C          62.9566   82.9925   14.7659 C.ar    1  UNL1        0.3315
     12 O          62.7203   83.0205   16.2469 O.2     1  UNL1       -0.2463
     13 N          63.2904   84.1737   13.9039 N.ar    1  UNL1       -0.2817
     14 C          63.4407   83.6896   12.4921 C.ar    1  UNL1        0.0796
     15 C          63.7658   84.4056   11.2148 C.ar    1  UNL1        0.0188
     16 C          63.8500   83.6411    9.9270 C.ar    1  UNL1        0.0016
     17 C          63.6090   82.1606    9.9166 C.ar    1  UNL1        0.0016
     18 C          63.2839   81.4446   11.1939 C.ar    1  UNL1        0.0188
     19 C          63.1997   82.2091   12.4817 C.ar    1  UNL1        0.0798
     20 C          64.4636   90.8812   14.8434 C.3     1  UNL1        0.0795
     21 C          63.9310   90.9930   13.4456 C.3     1  UNL1        0.0264
     22 C          64.4795   92.0338   12.5150 C.3     1  UNL1        0.0729
     23 N          65.5607   92.9628   12.9822 N.3     1  UNL1       -0.2689
     24 C          66.0932   92.8510   14.3800 C.3     1  UNL1        0.0729
     25 C          65.5447   91.8102   15.3105 C.3     1  UNL1        0.0264
     26 C          66.1091   94.0035   12.0516 C.3     1  UNL1        0.0992
     27 C          66.8836   93.5891   10.8357 C.ar    1  UNL1       -0.0031
     28 C          67.6006   92.2716   10.8161 C.ar    1  UNL1        0.0178
     29 C          68.3751   91.8572    9.6002 C.ar    1  UNL1        0.0986
     30 N          68.4326   92.7603    8.4039 N.ar    1  UNL1       -0.2423
     31 C          67.7157   94.0777    8.4235 C.ar    1  UNL1        0.0986
     32 C          66.9412   94.4921    9.6394 C.ar    1  UNL1        0.0178
@<TRIPOS>BOND
     1     9    10    1
     2    10    11   ar
     3    11    12    2
     4    11    13   ar
     5    13     1    1
     6     1     2    1
     7     2     3    1
     8     3     4    1
     9     4     5   am
    10     5     6    2
    11     5    20    1
    12    20    21    1
    13    21    22    1
    14    22    23    1
    15    23    26    1
    16    26    27    1
    17    27    28   ar
    18    28    29   ar
    19    29    30   ar
    20    30    31   ar
    21    31    32   ar
    22    23    24    1
    23    24    25    1
    24     4     7    1
    25     7     8    1
    26    13    14   ar
    27    14    15   ar
    28    15    16   ar
    29    16    17   ar
    30    17    18   ar
    31    18    19   ar
    32    19    10   ar
    33     8     1    1
    34    19    14   ar
    35    25    20    1
    36    32    27   ar
@<TRIPOS>MOLECULE
*****
 32 36 0 0 0
SMALL
GASTEIGER

@<TRIPOS>ATOM
      1 C          61.9569   88.5570   10.9452 C.3     1  UNL1        0.0933
      2 C          62.0030   89.7025    9.9778 C.3     1  UNL1        0.0442
      3 C          61.1093   89.7032    8.7730 C.3     1  UNL1        0.0953
      4 N          60.1696   88.5585    8.5356 N.am    1  UNL1       -0.2794
      5 C          59.2759   88.5592    7.3309 C.2     1  UNL1        0.2252
      6 O          58.3362   87.4144    7.0935 O.2     1  UNL1       -0.2749
      7 C          60.1235   87.4130    9.5030 C.3     1  UNL1        0.0953
      8 C          61.0171   87.4123   10.7077 C.3     1  UNL1        0.0442
      9 C          65.0134   90.1843   14.9314 C.3     1  UNL1        0.1351
     10 N          64.2554   89.3043   13.9821 N.ar    1  UNL1       -0.2779
     11 C          63.4239   89.7679   12.8230 C.ar    1  UNL1        0.3315
     12 O          63.2043   91.1930   12.4097 O.2     1  UNL1       -0.2463
     13 N          62.8505   88.5563   12.1499 N.ar    1  UNL1       -0.2817
     14 C          63.3277   87.3438   12.8930 C.ar    1  UNL1        0.0796
     15 C          63.0837   85.8785   12.6847 C.ar    1  UNL1        0.0188
     16 C          63.7080   84.8755   13.6089 C.ar    1  UNL1        0.0016
     17 C          64.5763   85.3378   14.7413 C.ar    1  UNL1        0.0016
     18 C          64.8203   86.8031   14.9496 C.ar    1  UNL1        0.0188
     19 C          64.1960   87.8061   14.0254 C.ar    1  UNL1        0.0798
     20 C          59.3220   89.7046    6.3636 C.3     1  UNL1        0.0795
     21 C          58.0673   90.4559    6.0303 C.3     1  UNL1        0.0264
     22 C          58.1135   91.6015    5.0630 C.3     1  UNL1        0.0729
     23 N          59.4145   91.9957    4.4290 N.3     1  UNL1       -0.2689
     24 C          60.6693   91.2444    4.7623 C.3     1  UNL1        0.0729
     25 C          60.6231   90.0990    5.7296 C.3     1  UNL1        0.0264
     26 C          59.4607   93.1412    3.4617 C.3     1  UNL1        0.0992
     27 C          60.1771   92.9891    2.1526 C.ar    1  UNL1       -0.0031
     28 C          61.6720   93.0996    2.0985 C.ar    1  UNL1        0.0178
     29 C          62.3884   92.9475    0.7894 C.ar    1  UNL1        0.0986
     30 N          61.6098   92.6849   -0.4655 N.ar    1  UNL1       -0.2423
     31 C          60.1149   92.5744   -0.4113 C.ar    1  UNL1        0.0986
     32 C          59.3985   92.7265    0.8977 C.ar    1  UNL1        0.0178
@<TRIPOS>BOND
     1     9    10    1
     2    10    11   ar
     3    11    12    2
     4    11    13   ar
     5    13     1    1
     6     1     2    1
     7     2     3    1
     8     3     4    1
     9     4     5   am
    10     5     6    2
    11     5    20    1
    12    20    21    1
    13    21    22    1
    14    22    23    1
    15    23    26    1
    16    26    27    1
    17    27    28   ar
    18    28    29   ar
    19    29    30   ar
    20    30    31   ar
    21    31    32   ar
    22    23    24    1
    23    24    25    1
    24     4     7    1
    25     7     8    1
    26    13    14   ar
    27    14    15   ar
    28    15    16   ar
    29    16    17   ar
    30    17    18   ar
    31    18    19   ar
    32    19    10   ar
    33     8     1    1
    34    19    14   ar
    35    25    20    1
    36    32    27   ar
@<TRIPOS>MOLECULE
*****
 32 36 0 0 0
SMALL
GASTEIGER

@<TRIPOS>ATOM
      1 C          61.9085   88.2964   10.9218 C.3     1  UNL1        0.0933
      2 C          61.9998   89.4638    9.9842 C.3     1  UNL1        0.0442
      3 C          61.1033   89.5334    8.7836 C.3     1  UNL1        0.0953
      4 N          60.1155   88.4357    8.5206 N.am    1  UNL1       -0.2794
      5 C          59.2190   88.5053    7.3200 C.2     1  UNL1        0.2252
      6 O          58.2312   87.4076    7.0569 O.2     1  UNL1       -0.2749
      7 C          60.0242   87.2684    9.4581 C.3     1  UNL1        0.0953
      8 C          60.9207   87.1988   10.6587 C.3     1  UNL1        0.0442
      9 C          64.6728   86.4514   15.0249 C.3     1  UNL1        0.1351
     10 N          64.0755   87.3788   14.0084 N.ar    1  UNL1       -0.2779
     11 C          63.1556   86.9869   12.8903 C.ar    1  UNL1        0.3315
     12 O          62.6713   85.5988   12.5924 O.2     1  UNL1       -0.2463
     13 N          62.8050   88.2268   12.1225 N.ar    1  UNL1       -0.2817
     14 C          63.5082   89.3850   12.7659 C.ar    1  UNL1        0.0796
     15 C          63.5350   90.8491   12.4411 C.ar    1  UNL1        0.0188
     16 C          64.3470   91.7891   13.2819 C.ar    1  UNL1        0.0016
     17 C          65.1323   91.2650   14.4475 C.ar    1  UNL1        0.0016
     18 C          65.1056   89.8009   14.7723 C.ar    1  UNL1        0.0188
     19 C          64.2935   88.8609   13.9315 C.ar    1  UNL1        0.0798
     20 C          59.3104   89.6726    6.3825 C.3     1  UNL1        0.0795
     21 C          60.6355   90.0637    5.7985 C.3     1  UNL1        0.0264
     22 C          60.7268   91.2311    4.8610 C.3     1  UNL1        0.0729
     23 N          59.4930   92.0074    4.5074 N.3     1  UNL1       -0.2689
     24 C          58.1678   91.6163    5.0914 C.3     1  UNL1        0.0729
     25 C          58.0765   90.4489    6.0289 C.3     1  UNL1        0.0264
     26 C          59.5844   93.1747    3.5699 C.3     1  UNL1        0.0992
     27 C          60.2085   93.0029    2.2168 C.ar    1  UNL1       -0.0031
     28 C          61.6913   93.1561    2.0499 C.ar    1  UNL1        0.0178
     29 C          62.3154   92.9843    0.6968 C.ar    1  UNL1        0.0986
     30 N          61.4567   92.6594   -0.4894 N.ar    1  UNL1       -0.2423
     31 C          59.9739   92.5063   -0.3225 C.ar    1  UNL1        0.0986
     32 C          59.3498   92.6780    1.0306 C.ar    1  UNL1        0.0178
@<TRIPOS>BOND
     1     9    10    1
     2    10    11   ar
     3    11    12    2
     4    11    13   ar
     5    13     1    1
     6     1     2    1
     7     2     3    1
     8     3     4    1
     9     4     5   am
    10     5     6    2
    11     5    20    1
    12    20    21    1
    13    21    22    1
    14    22    23    1
    15    23    26    1
    16    26    27    1
    17    27    28   ar
    18    28    29   ar
    19    29    30   ar
    20    30    31   ar
    21    31    32   ar
    22    23    24    1
    23    24    25    1
    24     4     7    1
    25     7     8    1
    26    13    14   ar
    27    14    15   ar
    28    15    16   ar
    29    16    17   ar
    30    17    18   ar
    31    18    19   ar
    32    19    10   ar
    33     8     1    1
    34    19    14   ar
    35    25    20    1
    36    32    27   ar
@<TRIPOS>MOLECULE
*****
 32 36 0 0 0
SMALL
GASTEIGER

@<TRIPOS>ATOM
      1 C          61.1897   92.3221    2.8016 C.3     1  UNL1        0.0933
      2 C          61.7713   91.4680    3.8890 C.3     1  UNL1        0.0442
      3 C          60.8753   90.8691    4.9324 C.3     1  UNL1        0.0953
      4 N          59.3978   91.1242    4.8883 N.am    1  UNL1       -0.2794
      5 C          58.5019   90.5253    5.9316 C.2     1  UNL1        0.2252
      6 O          57.0244   90.7804    5.8876 O.2     1  UNL1       -0.2749
      7 C          58.8163   91.9782    3.8009 C.3     1  UNL1        0.0953
      8 C          59.7123   92.5771    2.7575 C.3     1  UNL1        0.0442
      9 C          65.3468   94.5579    0.4351 C.3     1  UNL1        0.1351
     10 N          63.9965   93.9487    0.6705 N.ar    1  UNL1       -0.2779
     11 C          63.4733   93.4447    1.9828 C.ar    1  UNL1        0.3315
     12 O          64.2085   93.4614    3.2902 O.2     1  UNL1       -0.2463
     13 N          62.0857   92.9210    1.7582 N.ar    1  UNL1       -0.2817
     14 C          61.7514   93.1013    0.3071 C.ar    1  UNL1        0.0796
     15 C          60.5242   92.7692   -0.4889 C.ar    1  UNL1        0.0188
     16 C          60.4780   93.0722   -1.9573 C.ar    1  UNL1        0.0016
     17 C          61.6590   93.7074   -2.6295 C.ar    1  UNL1        0.0016
     18 C          62.8861   94.0395   -1.8335 C.ar    1  UNL1        0.0188
     19 C          62.9323   93.7364   -0.3652 C.ar    1  UNL1        0.0798
     20 C          59.0834   89.6713    7.0190 C.3     1  UNL1        0.0795
     21 C          59.9733   90.2845    8.0593 C.3     1  UNL1        0.0264
     22 C          60.5549   89.4304    9.1467 C.3     1  UNL1        0.0729
     23 N          60.2466   87.9632    9.1938 N.3     1  UNL1       -0.2689
     24 C          59.3567   87.3500    8.1535 C.3     1  UNL1        0.0729
     25 C          58.7752   88.2041    7.0662 C.3     1  UNL1        0.0264
     26 C          60.8282   87.1092   10.2812 C.3     1  UNL1        0.0992
     27 C          61.8116   86.0287    9.9413 C.ar    1  UNL1       -0.0031
     28 C          62.2901   85.8673    8.5289 C.ar    1  UNL1        0.0178
     29 C          63.2735   84.7868    8.1890 C.ar    1  UNL1        0.0986
     30 N          63.7784   83.8678    9.2616 N.ar    1  UNL1       -0.2423
     31 C          63.2999   84.0292   10.6740 C.ar    1  UNL1        0.0986
     32 C          62.3165   85.1097   11.0139 C.ar    1  UNL1        0.0178
@<TRIPOS>BOND
     1     9    10    1
     2    10    11   ar
     3    11    12    2
     4    11    13   ar
     5    13     1    1
     6     1     2    1
     7     2     3    1
     8     3     4    1
     9     4     5   am
    10     5     6    2
    11     5    20    1
    12    20    21    1
    13    21    22    1
    14    22    23    1
    15    23    26    1
    16    26    27    1
    17    27    28   ar
    18    28    29   ar
    19    29    30   ar
    20    30    31   ar
    21    31    32   ar
    22    23    24    1
    23    24    25    1
    24     4     7    1
    25     7     8    1
    26    13    14   ar
    27    14    15   ar
    28    15    16   ar
    29    16    17   ar
    30    17    18   ar
    31    18    19   ar
    32    19    10   ar
    33     8     1    1
    34    19    14   ar
    35    25    20    1
    36    32    27   ar
@<TRIPOS>MOLECULE
*****
 32 36 0 0 0
SMALL
GASTEIGER

@<TRIPOS>ATOM
      1 C          62.6299   85.1353   11.5909 C.3     1  UNL1        0.0933
      2 C          63.5240   85.8873   12.5319 C.3     1  UNL1        0.0442
      3 C          63.4065   87.3782   12.6476 C.3     1  UNL1        0.0953
      4 N          62.3950   88.1172   11.8225 N.am    1  UNL1       -0.2794
      5 C          62.2776   89.6081   11.9382 C.2     1  UNL1        0.2252
      6 O          61.2661   90.3470   11.1131 O.2     1  UNL1       -0.2749
      7 C          61.5010   87.3652   10.8816 C.3     1  UNL1        0.0953
      8 C          61.6185   85.8743   10.7659 C.3     1  UNL1        0.0442
      9 C          63.5215   80.3032    9.6581 C.3     1  UNL1        0.1351
     10 N          63.1572   81.4233   10.5868 N.ar    1  UNL1       -0.2779
     11 C          63.1871   82.8865   10.2577 C.ar    1  UNL1        0.3315
     12 O          63.5866   83.4864    8.9423 O.2     1  UNL1       -0.2463
     13 N          62.7473   83.6444   11.4752 N.ar    1  UNL1       -0.2817
     14 C          62.4456   82.6497   12.5566 C.ar    1  UNL1        0.0796
     15 C          61.9730   82.8165   13.9704 C.ar    1  UNL1        0.0188
     16 C          61.7537   81.6106   14.8351 C.ar    1  UNL1        0.0016
     17 C          62.0070   80.2379   14.2860 C.ar    1  UNL1        0.0016
     18 C          62.4796   80.0711   12.8722 C.ar    1  UNL1        0.0188
     19 C          62.6989   81.2769   12.0076 C.ar    1  UNL1        0.0798
     20 C          63.1716   90.3600   12.8791 C.3     1  UNL1        0.0795
     21 C          63.1012   90.0947   14.3537 C.3     1  UNL1        0.0264
     22 C          63.9953   90.8467   15.2946 C.3     1  UNL1        0.0729
     23 N          64.9599   91.8639   14.7608 N.3     1  UNL1       -0.2689
     24 C          65.0304   92.1291   13.2861 C.3     1  UNL1        0.0729
     25 C          64.1363   91.3771   12.3453 C.3     1  UNL1        0.0264
     26 C          65.8539   92.6157   15.7017 C.3     1  UNL1        0.0992
     27 C          67.3119   92.7730   15.3863 C.ar    1  UNL1       -0.0031
     28 C          68.1255   93.8125   16.0988 C.ar    1  UNL1        0.0178
     29 C          69.5835   93.9698   15.7834 C.ar    1  UNL1        0.0986
     30 N          70.2279   93.0876   14.7555 N.ar    1  UNL1       -0.2423
     31 C          69.4143   92.0482   14.0430 C.ar    1  UNL1        0.0986
     32 C          67.9563   91.8909   14.3584 C.ar    1  UNL1        0.0178
@<TRIPOS>BOND
     1     9    10    1
     2    10    11   ar
     3    11    12    2
     4    11    13   ar
     5    13     1    1
     6     1     2    1
     7     2     3    1
     8     3     4    1
     9     4     5   am
    10     5     6    2
    11     5    20    1
    12    20    21    1
    13    21    22    1
    14    22    23    1
    15    23    26    1
    16    26    27    1
    17    27    28   ar
    18    28    29   ar
    19    29    30   ar
    20    30    31   ar
    21    31    32   ar
    22    23    24    1
    23    24    25    1
    24     4     7    1
    25     7     8    1
    26    13    14   ar
    27    14    15   ar
    28    15    16   ar
    29    16    17   ar
    30    17    18   ar
    31    18    19   ar
    32    19    10   ar
    33     8     1    1
    34    19    14   ar
    35    25    20    1
    36    32    27   ar
@<TRIPOS>MOLECULE
*****
 32 36 0 0 0
SMALL
GASTEIGER

@<TRIPOS>ATOM
      1 C          60.9645   92.4801    3.1789 C.3     1  UNL1        0.0933
      2 C          61.6423   91.4892    4.0782 C.3     1  UNL1        0.0442
      3 C          60.8367   90.7012    5.0682 C.3     1  UNL1        0.0953
      4 N          59.3533   90.9042    5.1589 N.am    1  UNL1       -0.2794
      5 C          58.5476   90.1162    6.1490 C.2     1  UNL1        0.2252
      6 O          57.0642   90.3192    6.2397 O.2     1  UNL1       -0.2749
      7 C          58.6755   91.8950    4.2597 C.3     1  UNL1        0.0953
      8 C          59.4811   92.6830    3.2696 C.3     1  UNL1        0.0442
      9 C          64.9347   94.1284    0.1128 C.3     1  UNL1        0.1351
     10 N          63.5950   94.0257    0.7796 N.ar    1  UNL1       -0.2779
     11 C          63.1905   92.9951    1.7917 C.ar    1  UNL1        0.3315
     12 O          64.0548   91.8863    2.3148 O.2     1  UNL1       -0.2463
     13 N          61.7701   93.2681    2.1888 N.ar    1  UNL1       -0.2817
     14 C          61.2966   94.4673    1.4222 C.ar    1  UNL1        0.0796
     15 C          59.9842   95.1934    1.4047 C.ar    1  UNL1        0.0188
     16 C          59.7997   96.3877    0.5162 C.ar    1  UNL1        0.0016
     17 C          60.9276   96.8559   -0.3548 C.ar    1  UNL1        0.0016
     18 C          62.2400   96.1298   -0.3373 C.ar    1  UNL1        0.0188
     19 C          62.4245   94.9355    0.5512 C.ar    1  UNL1        0.0798
     20 C          59.2255   89.1254    7.0482 C.3     1  UNL1        0.0795
     21 C          59.9733   89.6001    8.2587 C.3     1  UNL1        0.0264
     22 C          60.6512   88.6091    9.1580 C.3     1  UNL1        0.0729
     23 N          60.5813   87.1434    8.8466 N.3     1  UNL1       -0.2689
     24 C          59.8335   86.6687    7.6360 C.3     1  UNL1        0.0729
     25 C          59.1557   87.6597    6.7369 C.3     1  UNL1        0.0264
     26 C          61.2592   86.1526    9.7458 C.3     1  UNL1        0.0992
     27 C          62.0528   86.6307   10.9254 C.ar    1  UNL1       -0.0031
     28 C          62.3052   88.0971   11.1150 C.ar    1  UNL1        0.0178
     29 C          63.0989   88.5751   12.2947 C.ar    1  UNL1        0.0986
     30 N          63.6402   87.5868   13.2847 N.ar    1  UNL1       -0.2423
     31 C          63.3877   86.1204   13.0951 C.ar    1  UNL1        0.0986
     32 C          62.5941   85.6423   11.9155 C.ar    1  UNL1        0.0178
@<TRIPOS>BOND
     1     9    10    1
     2    10    11   ar
     3    11    12    2
     4    11    13   ar
     5    13     1    1
     6     1     2    1
     7     2     3    1
     8     3     4    1
     9     4     5   am
    10     5     6    2
    11     5    20    1
    12    20    21    1
    13    21    22    1
    14    22    23    1
    15    23    26    1
    16    26    27    1
    17    27    28   ar
    18    28    29   ar
    19    29    30   ar
    20    30    31   ar
    21    31    32   ar
    22    23    24    1
    23    24    25    1
    24     4     7    1
    25     7     8    1
    26    13    14   ar
    27    14    15   ar
    28    15    16   ar
    29    16    17   ar
    30    17    18   ar
    31    18    19   ar
    32    19    10   ar
    33     8     1    1
    34    19    14   ar
    35    25    20    1
    36    32    27   ar
@<TRIPOS>MOLECULE
*****
 32 36 0 0 0
SMALL
GASTEIGER

@<TRIPOS>ATOM
      1 C          62.3493   85.5628   12.0588 C.3     1  UNL1        0.0933
      2 C          63.3573   86.5396   12.5881 C.3     1  UNL1        0.0442
      3 C          63.3233   87.9702   12.1385 C.3     1  UNL1        0.0953
      4 N          62.2814   88.4241   11.1595 N.am    1  UNL1       -0.2794
      5 C          62.2474   89.8548   10.7099 C.2     1  UNL1        0.2252
      6 O          61.2055   90.3087    9.7309 O.2     1  UNL1       -0.2749
      7 C          61.2735   87.4474   10.6302 C.3     1  UNL1        0.0953
      8 C          61.3075   86.0168   11.0798 C.3     1  UNL1        0.0442
      9 C          62.0267   81.2352   15.0668 C.3     1  UNL1        0.1351
     10 N          62.2351   82.1431   13.8910 N.ar    1  UNL1       -0.2779
     11 C          62.0787   83.6349   13.8904 C.ar    1  UNL1        0.3315
     12 O          61.6865   84.4808   15.0653 O.2     1  UNL1       -0.2463
     13 N          62.3834   84.1322   12.5084 N.ar    1  UNL1       -0.2817
     14 C          62.7280   82.9478   11.6550 C.ar    1  UNL1        0.0796
     15 C          63.1135   82.8299   10.2102 C.ar    1  UNL1        0.0188
     16 C          63.4073   81.4826    9.6199 C.ar    1  UNL1        0.0016
     17 C          63.3156   80.2532   10.4744 C.ar    1  UNL1        0.0016
     18 C          62.9301   80.3711   11.9192 C.ar    1  UNL1        0.0188
     19 C          62.6364   81.7184   12.5095 C.ar    1  UNL1        0.0798
     20 C          63.2553   90.8314   11.2393 C.3     1  UNL1        0.0795
     21 C          63.9916   91.7352   10.2953 C.3     1  UNL1        0.0264
     22 C          64.9996   92.7118   10.8249 C.3     1  UNL1        0.0729
     23 N          65.2712   92.7847   12.2983 N.3     1  UNL1       -0.2689
     24 C          64.5349   91.8809   13.2422 C.3     1  UNL1        0.0729
     25 C          63.5270   90.9043   12.7127 C.3     1  UNL1        0.0264
     26 C          66.2791   93.7613   12.8277 C.3     1  UNL1        0.0992
     27 C          67.2367   93.3419   13.9033 C.ar    1  UNL1       -0.0031
     28 C          67.9387   92.0196   13.8087 C.ar    1  UNL1        0.0178
     29 C          68.8963   91.6002   14.8843 C.ar    1  UNL1        0.0986
     30 N          69.1520   92.5031   16.0545 N.ar    1  UNL1       -0.2423
     31 C          68.4501   93.8254   16.1491 C.ar    1  UNL1        0.0986
     32 C          67.4924   94.2447   15.0735 C.ar    1  UNL1        0.0178
@<TRIPOS>BOND
     1     9    10    1
     2    10    11   ar
     3    11    12    2
     4    11    13   ar
     5    13     1    1
     6     1     2    1
     7     2     3    1
     8     3     4    1
     9     4     5   am
    10     5     6    2
    11     5    20    1
    12    20    21    1
    13    21    22    1
    14    22    23    1
    15    23    26    1
    16    26    27    1
    17    27    28   ar
    18    28    29   ar
    19    29    30   ar
    20    30    31   ar
    21    31    32   ar
    22    23    24    1
    23    24    25    1
    24     4     7    1
    25     7     8    1
    26    13    14   ar
    27    14    15   ar
    28    15    16   ar
    29    16    17   ar
    30    17    18   ar
    31    18    19   ar
    32    19    10   ar
    33     8     1    1
    34    19    14   ar
    35    25    20    1
    36    32    27   ar
@<TRIPOS>MOLECULE
*****
 32 36 0 0 0
SMALL
GASTEIGER

@<TRIPOS>ATOM
      1 C          62.3859   85.1012   12.1255 C.3     1  UNL1        0.0933
      2 C          63.3818   86.1501   12.5231 C.3     1  UNL1        0.0442
      3 C          63.2263   87.5577   12.0287 C.3     1  UNL1        0.0953
      4 N          62.0750   87.9165   11.1367 N.am    1  UNL1       -0.2794
      5 C          61.9196   89.3241   10.6422 C.2     1  UNL1        0.2252
      6 O          60.7682   89.6829    9.7502 O.2     1  UNL1       -0.2749
      7 C          61.0792   86.8676   10.7391 C.3     1  UNL1        0.0953
      8 C          61.2346   85.4600   11.2335 C.3     1  UNL1        0.0442
      9 C          62.7836   80.9158   15.3200 C.3     1  UNL1        0.1351
     10 N          62.7241   81.7698   14.0883 N.ar    1  UNL1       -0.2779
     11 C          62.5414   83.2583   14.0554 C.ar    1  UNL1        0.3315
     12 O          62.3861   84.1541   15.2484 O.2     1  UNL1       -0.2463
     13 N          62.5413   83.6936   12.6200 N.ar    1  UNL1       -0.2817
     14 C          62.7239   82.4742   11.7657 C.ar    1  UNL1        0.0796
     15 C          62.8019   82.2929   10.2788 C.ar    1  UNL1        0.0188
     16 C          62.9929   80.9226    9.6993 C.ar    1  UNL1        0.0016
     17 C          63.1059   79.7336   10.6068 C.ar    1  UNL1        0.0016
     18 C          63.0279   79.9149   12.0938 C.ar    1  UNL1        0.0188
     19 C          62.8369   81.2852   12.6732 C.ar    1  UNL1        0.0798
     20 C          62.9155   90.3729   11.0399 C.3     1  UNL1        0.0795
     21 C          63.3860   90.4598   12.4615 C.3     1  UNL1        0.0264
     22 C          64.3820   91.5087   12.8591 C.3     1  UNL1        0.0729
     23 N          64.9073   92.4706   11.8350 N.3     1  UNL1       -0.2689
     24 C          64.4368   92.3837   10.4134 C.3     1  UNL1        0.0729
     25 C          63.4409   91.3349   10.0159 C.3     1  UNL1        0.0264
     26 C          65.9032   93.5194   12.2327 C.3     1  UNL1        0.0992
     27 C          66.4664   94.4492   11.1991 C.ar    1  UNL1       -0.0031
     28 C          66.2041   95.9231   11.2937 C.ar    1  UNL1        0.0178
     29 C          66.7673   96.8529   10.2601 C.ar    1  UNL1        0.0986
     30 N          67.5928   96.3089    9.1320 N.ar    1  UNL1       -0.2423
     31 C          67.8551   94.8350    9.0375 C.ar    1  UNL1        0.0986
     32 C          67.2919   93.9052   10.0711 C.ar    1  UNL1        0.0178
@<TRIPOS>BOND
     1     9    10    1
     2    10    11   ar
     3    11    12    2
     4    11    13   ar
     5    13     1    1
     6     1     2    1
     7     2     3    1
     8     3     4    1
     9     4     5   am
    10     5     6    2
    11     5    20    1
    12    20    21    1
    13    21    22    1
    14    22    23    1
    15    23    26    1
    16    26    27    1
    17    27    28   ar
    18    28    29   ar
    19    29    30   ar
    20    30    31   ar
    21    31    32   ar
    22    23    24    1
    23    24    25    1
    24     4     7    1
    25     7     8    1
    26    13    14   ar
    27    14    15   ar
    28    15    16   ar
    29    16    17   ar
    30    17    18   ar
    31    18    19   ar
    32    19    10   ar
    33     8     1    1
    34    19    14   ar
    35    25    20    1
    36    32    27   ar
@<TRIPOS>MOLECULE
*****
 32 36 0 0 0
SMALL
GASTEIGER

@<TRIPOS>ATOM
      1 C          62.3540   85.4483   11.3764 C.3     1  UNL1        0.0933
      2 C          63.5045   86.3896   11.5777 C.3     1  UNL1        0.0442
      3 C          63.2714   87.8714   11.5700 C.3     1  UNL1        0.0953
      4 N          61.8879   88.4119   11.3611 N.am    1  UNL1       -0.2794
      5 C          61.6548   89.8937   11.3535 C.2     1  UNL1        0.2252
      6 O          60.2712   90.4342   11.1446 O.2     1  UNL1       -0.2749
      7 C          60.7374   87.4707   11.1599 C.3     1  UNL1        0.0953
      8 C          60.9705   85.9889   11.1675 C.3     1  UNL1        0.0442
      9 C          63.5353   80.5425    9.8213 C.3     1  UNL1        0.1351
     10 N          63.1300   81.7116   10.6692 N.ar    1  UNL1       -0.2779
     11 C          63.0223   83.1365   10.2129 C.ar    1  UNL1        0.3315
     12 O          63.3009   83.6424    8.8285 O.2     1  UNL1       -0.2463
     13 N          62.5871   83.9665   11.3840 N.ar    1  UNL1       -0.2817
     14 C          62.4258   83.0548   12.5641 C.ar    1  UNL1        0.0796
     15 C          62.0167   83.3135   13.9838 C.ar    1  UNL1        0.0188
     16 C          61.9433   82.1785   14.9618 C.ar    1  UNL1        0.0016
     17 C          62.2789   80.7849   14.5200 C.ar    1  UNL1        0.0016
     18 C          62.6879   80.5262   13.1003 C.ar    1  UNL1        0.0188
     19 C          62.7614   81.6611   12.1223 C.ar    1  UNL1        0.0798
     20 C          62.8053   90.8348   11.5548 C.3     1  UNL1        0.0795
     21 C          63.4078   91.0021   12.9183 C.3     1  UNL1        0.0264
     22 C          64.5584   91.9433   13.1195 C.3     1  UNL1        0.0729
     23 N          65.1063   92.7172   11.9572 N.3     1  UNL1       -0.2689
     24 C          64.5038   92.5500   10.5938 C.3     1  UNL1        0.0729
     25 C          63.3533   91.6088   10.3926 C.3     1  UNL1        0.0264
     26 C          66.2568   93.6584   12.1585 C.3     1  UNL1        0.0992
     27 C          66.7265   94.5220   11.0256 C.ar    1  UNL1       -0.0031
     28 C          66.4294   95.9923   11.0303 C.ar    1  UNL1        0.0178
     29 C          66.8991   96.8560    9.8973 C.ar    1  UNL1        0.0986
     30 N          67.6657   96.2493    8.7597 N.ar    1  UNL1       -0.2423
     31 C          67.9627   94.7790    8.7550 C.ar    1  UNL1        0.0986
     32 C          67.4931   93.9154    9.8880 C.ar    1  UNL1        0.0178
@<TRIPOS>BOND
     1     9    10    1
     2    10    11   ar
     3    11    12    2
     4    11    13   ar
     5    13     1    1
     6     1     2    1
     7     2     3    1
     8     3     4    1
     9     4     5   am
    10     5     6    2
    11     5    20    1
    12    20    21    1
    13    21    22    1
    14    22    23    1
    15    23    26    1
    16    26    27    1
    17    27    28   ar
    18    28    29   ar
    19    29    30   ar
    20    30    31   ar
    21    31    32   ar
    22    23    24    1
    23    24    25    1
    24     4     7    1
    25     7     8    1
    26    13    14   ar
    27    14    15   ar
    28    15    16   ar
    29    16    17   ar
    30    17    18   ar
    31    18    19   ar
    32    19    10   ar
    33     8     1    1
    34    19    14   ar
    35    25    20    1
    36    32    27   ar
