@<TRIPOS>MOLECULE
*****
 30 33 0 0 0
SMALL
GASTEIGER

@<TRIPOS>ATOM
      1 C          65.0952   91.6186   12.6305 C.2     1  UNL1        0.2685
      2 O          65.2827   91.7703   11.1500 O.2     1  UNL1       -0.2682
      3 N          63.9607   90.7938   13.1621 N.am    1  UNL1       -0.2723
      4 C          63.0138   90.1207   12.2134 C.3     1  UNL1        0.0761
      5 C          61.9425   90.7961   11.4095 C.3     1  UNL1        0.0213
      6 C          61.2385   89.7468   10.6012 C.3     1  UNL1        0.0188
      7 C          60.1413   89.5158    9.6048 C.3     1  UNL1        0.0686
      8 N          60.0993   88.0491    9.2933 N.3     1  UNL1       -0.2975
      9 C          61.1706   87.3736   10.0972 C.3     1  UNL1        0.0686
     10 C          61.8746   88.4229   10.9055 C.3     1  UNL1        0.0188
     11 C          62.9719   88.6540   11.9019 C.3     1  UNL1        0.0213
     12 H          60.2683   87.9016    8.2983 H       1  UNL1        0.1232
     13 C          68.9541   92.4311   16.1417 C.3     1  UNL1        0.1321
     14 N          67.8159   92.6652   15.1931 N.ar    1  UNL1       -0.3057
     15 C          67.1831   93.9898   14.8851 C.ar    1  UNL1        0.1787
     16 N          66.0868   93.7589   13.8877 N.ar    1  UNL1       -0.2192
     17 C          66.0422   92.2918   13.5792 C.ar    1  UNL1        0.1535
     18 C          67.1108   91.6157   14.3860 C.ar    1  UNL1        0.1012
     19 C          63.7733   90.6421   14.6427 C.3     1  UNL1        0.1205
     20 C          63.7092   89.2739   15.2542 C.ar    1  UNL1        0.0007
     21 C          62.9757   89.0632   16.5455 C.ar    1  UNL1       -0.0024
     22 C          62.9116   87.6949   17.1571 C.ar    1  UNL1        0.0028
     23 C          63.5812   86.5376   16.4771 C.ar    1  UNL1        0.0372
     24 C          64.3147   86.7484   15.1859 C.ar    1  UNL1        0.1465
     25 C          64.3788   88.1165   14.5744 C.ar    1  UNL1        0.0346
     26 O          64.9843   85.5909   14.5060 O.3     1  UNL1       -0.4045
     27 C          64.1591   84.4693   13.9483 C.3     1  UNL1        0.5753
     28 F          63.3340   83.3476   13.3905 F       1  UNL1       -0.1328
     29 F          64.6712   83.5577   15.0238 F       1  UNL1       -0.1328
     30 F          63.6470   85.3808   12.8727 F       1  UNL1       -0.1328
@<TRIPOS>BOND
     1    13    14    1
     2    14    15   ar
     3    15    16   ar
     4    16    17   ar
     5    17     1    1
     6     1     2    2
     7     1     3   am
     8     3    19    1
     9    19    20    1
    10    20    21   ar
    11    21    22   ar
    12    22    23   ar
    13    23    24   ar
    14    24    26    1
    15    26    27    1
    16    27    28    1
    17    27    29    1
    18    27    30    1
    19    24    25   ar
    20     4     3    1
    21     4     5    1
    22     6     5    1
    23     6     7    1
    24     7     8    1
    25     8     9    1
    26    10     9    1
    27    10    11    1
    28    17    18   ar
    29    18    14   ar
    30    25    20   ar
    31    11     4    1
    32    10     6    1
    33     8    12    1
@<TRIPOS>MOLECULE
*****
 30 33 0 0 0
SMALL
GASTEIGER

@<TRIPOS>ATOM
      1 C          65.6201   91.5220   13.6038 C.2     1  UNL1        0.2685
      2 O          66.3961   91.3906   14.8807 O.2     1  UNL1       -0.2682
      3 N          64.4867   90.5829   13.3150 N.am    1  UNL1       -0.2723
      4 C          64.1294   89.5124   14.3029 C.3     1  UNL1        0.0761
      5 C          64.4182   88.0475   14.1588 C.3     1  UNL1        0.0213
      6 C          63.8877   87.3485   15.3754 C.3     1  UNL1        0.0188
      7 C          63.7384   86.0112   16.0381 C.3     1  UNL1        0.0686
      8 N          63.0295   86.2176   17.3438 N.3     1  UNL1       -0.2975
      9 C          62.7406   87.6824   17.4880 C.3     1  UNL1        0.0686
     10 C          63.2711   88.3814   16.2714 C.3     1  UNL1        0.0188
     11 C          63.4204   89.7187   15.6087 C.3     1  UNL1        0.0213
     12 H          63.6220   85.9043   18.1127 H       1  UNL1        0.1232
     13 C          67.3544   93.9680    9.2576 C.3     1  UNL1        0.1321
     14 N          66.7747   93.7169   10.6181 N.ar    1  UNL1       -0.3057
     15 C          66.2805   94.7630   11.5727 C.ar    1  UNL1        0.1787
     16 N          65.7878   94.0681   12.8074 N.ar    1  UNL1       -0.2192
     17 C          65.9775   92.5926   12.6158 C.ar    1  UNL1        0.1535
     18 C          66.5874   92.3755   11.2627 C.ar    1  UNL1        0.1012
     19 C          63.7107   90.7144   12.0380 C.3     1  UNL1        0.1205
     20 C          62.4956   89.8654   11.8080 C.ar    1  UNL1        0.0007
     21 C          61.1294   90.4223   12.0789 C.ar    1  UNL1       -0.0024
     22 C          59.9143   89.5733   11.8489 C.ar    1  UNL1        0.0028
     23 C          60.0656   88.1675   11.3482 C.ar    1  UNL1        0.0372
     24 C          61.4317   87.6107   11.0774 C.ar    1  UNL1        0.1465
     25 C          62.6468   88.4596   11.3073 C.ar    1  UNL1        0.0346
     26 O          61.5829   86.2048   10.5766 O.3     1  UNL1       -0.4045
     27 C          62.3838   85.9319    9.3380 C.3     1  UNL1        0.5753
     28 F          63.1848   85.6591    8.0994 F       1  UNL1       -0.1328
     29 F          63.1777   84.8974   10.0792 F       1  UNL1       -0.1328
     30 F          61.5900   86.9664    8.5967 F       1  UNL1       -0.1328
@<TRIPOS>BOND
     1    13    14    1
     2    14    15   ar
     3    15    16   ar
     4    16    17   ar
     5    17     1    1
     6     1     2    2
     7     1     3   am
     8     3    19    1
     9    19    20    1
    10    20    21   ar
    11    21    22   ar
    12    22    23   ar
    13    23    24   ar
    14    24    26    1
    15    26    27    1
    16    27    28    1
    17    27    29    1
    18    27    30    1
    19    24    25   ar
    20     4     3    1
    21     4     5    1
    22     6     5    1
    23     6     7    1
    24     7     8    1
    25     8     9    1
    26    10     9    1
    27    10    11    1
    28    17    18   ar
    29    18    14   ar
    30    25    20   ar
    31    11     4    1
    32    10     6    1
    33     8    12    1
@<TRIPOS>MOLECULE
*****
 30 33 0 0 0
SMALL
GASTEIGER

@<TRIPOS>ATOM
      1 C          64.0690   84.8608   13.8127 C.2     1  UNL1        0.2685
      2 O          65.2760   85.2369   14.6199 O.2     1  UNL1       -0.2682
      3 N          63.2242   85.9291   13.1844 N.am    1  UNL1       -0.2723
      4 C          63.5863   87.3737   13.3632 C.3     1  UNL1        0.0761
      5 C          64.3108   87.9622   14.5375 C.3     1  UNL1        0.0213
      6 C          64.4598   89.4356   14.2992 C.3     1  UNL1        0.0188
      7 C          64.9997   90.7100   14.8777 C.3     1  UNL1        0.0686
      8 N          64.7010   91.8197   13.9137 N.3     1  UNL1       -0.2975
      9 C          63.9765   91.2312   12.7395 C.3     1  UNL1        0.0686
     10 C          63.8275   89.7578   12.9777 C.3     1  UNL1        0.0188
     11 C          63.2876   88.4835   12.3992 C.3     1  UNL1        0.0213
     12 H          65.5711   92.2515   13.6027 H       1  UNL1        0.1232
     13 C          61.5250   80.2448   14.1312 C.3     1  UNL1        0.1321
     14 N          62.5375   81.2944   13.7802 N.ar    1  UNL1       -0.3057
     15 C          63.7615   81.0919   12.9373 C.ar    1  UNL1        0.1787
     16 N          64.4842   82.4032   12.8468 N.ar    1  UNL1       -0.2192
     17 C          63.7068   83.4161   13.6339 C.ar    1  UNL1        0.1535
     18 C          62.5037   82.7309   14.2108 C.ar    1  UNL1        0.1012
     19 C          62.0171   85.5529   12.3771 C.3     1  UNL1        0.1205
     20 C          62.0971   85.5193   10.8796 C.ar    1  UNL1        0.0007
     21 C          63.1772   84.7277   10.2038 C.ar    1  UNL1       -0.0024
     22 C          63.2572   84.6941    8.7062 C.ar    1  UNL1        0.0028
     23 C          62.2570   85.4522    7.8847 C.ar    1  UNL1        0.0372
     24 C          61.1770   86.2438    8.5605 C.ar    1  UNL1        0.1465
     25 C          61.0970   86.2773   10.0580 C.ar    1  UNL1        0.0346
     26 O          60.1768   87.0019    7.7389 O.3     1  UNL1       -0.4045
     27 C          59.8709   88.4340    8.0635 C.3     1  UNL1        0.5753
     28 F          59.5650   89.8663    8.3881 F       1  UNL1       -0.1328
     29 F          58.5463   88.3081    7.3711 F       1  UNL1       -0.1328
     30 F          61.1955   88.5601    8.7560 F       1  UNL1       -0.1328
@<TRIPOS>BOND
     1    13    14    1
     2    14    15   ar
     3    15    16   ar
     4    16    17   ar
     5    17     1    1
     6     1     2    2
     7     1     3   am
     8     3    19    1
     9    19    20    1
    10    20    21   ar
    11    21    22   ar
    12    22    23   ar
    13    23    24   ar
    14    24    26    1
    15    26    27    1
    16    27    28    1
    17    27    29    1
    18    27    30    1
    19    24    25   ar
    20     4     3    1
    21     4     5    1
    22     6     5    1
    23     6     7    1
    24     7     8    1
    25     8     9    1
    26    10     9    1
    27    10    11    1
    28    17    18   ar
    29    18    14   ar
    30    25    20   ar
    31    11     4    1
    32    10     6    1
    33     8    12    1
@<TRIPOS>MOLECULE
*****
 30 33 0 0 0
SMALL
GASTEIGER

@<TRIPOS>ATOM
      1 C          62.3300   89.5277   12.4698 C.2     1  UNL1        0.2685
      2 O          61.2318   90.3302   11.8374 O.2     1  UNL1       -0.2682
      3 N          62.6599   88.1624   11.9434 N.am    1  UNL1       -0.2723
      4 C          61.8916   87.5996   10.7847 C.3     1  UNL1        0.0761
      5 C          60.4374   87.8286   10.4962 C.3     1  UNL1        0.0213
      6 C          60.0896   87.0794    9.2441 C.3     1  UNL1        0.0188
      7 C          58.9759   86.7580    8.2921 C.3     1  UNL1        0.0686
      8 N          59.5268   85.8673    7.2182 N.3     1  UNL1       -0.2975
      9 C          60.9809   85.6382    7.5066 C.3     1  UNL1        0.0686
     10 C          61.3287   86.3874    8.7587 C.3     1  UNL1        0.0188
     11 C          62.4424   86.7088    9.7107 C.3     1  UNL1        0.0213
     12 H          59.4208   86.3159    6.3083 H       1  UNL1        0.1232
     13 C          65.9327   92.1385   15.3132 C.3     1  UNL1        0.1321
     14 N          64.7543   91.2907   14.9356 N.ar    1  UNL1       -0.3057
     15 C          63.8071   90.6231   15.8879 C.ar    1  UNL1        0.1787
     16 N          62.7837   89.8815   15.0802 N.ar    1  UNL1       -0.2192
     17 C          63.0983   90.0906   13.6287 C.ar    1  UNL1        0.1535
     18 C          64.3163   90.9616   13.5392 C.ar    1  UNL1        0.1012
     19 C          63.7582   87.3600   12.5759 C.3     1  UNL1        0.1205
     20 C          63.4313   86.1056   13.3306 C.ar    1  UNL1        0.0007
     21 C          63.5675   86.0718   14.8240 C.ar    1  UNL1       -0.0024
     22 C          63.2406   84.8173   15.5788 C.ar    1  UNL1        0.0028
     23 C          62.7775   83.5968   14.8400 C.ar    1  UNL1        0.0372
     24 C          62.6413   83.6306   13.3466 C.ar    1  UNL1        0.1465
     25 C          62.9682   84.8850   12.5919 C.ar    1  UNL1        0.0346
     26 O          62.1782   82.4100   12.6078 O.3     1  UNL1       -0.4045
     27 C          62.3736   81.0500   13.2097 C.3     1  UNL1        0.5753
     28 F          62.5690   79.6899   13.8115 F       1  UNL1       -0.1328
     29 F          60.9190   81.0016   13.5727 F       1  UNL1       -0.1328
     30 F          63.8282   81.0982   12.8467 F       1  UNL1       -0.1328
@<TRIPOS>BOND
     1    13    14    1
     2    14    15   ar
     3    15    16   ar
     4    16    17   ar
     5    17     1    1
     6     1     2    2
     7     1     3   am
     8     3    19    1
     9    19    20    1
    10    20    21   ar
    11    21    22   ar
    12    22    23   ar
    13    23    24   ar
    14    24    26    1
    15    26    27    1
    16    27    28    1
    17    27    29    1
    18    27    30    1
    19    24    25   ar
    20     4     3    1
    21     4     5    1
    22     6     5    1
    23     6     7    1
    24     7     8    1
    25     8     9    1
    26    10     9    1
    27    10    11    1
    28    17    18   ar
    29    18    14   ar
    30    25    20   ar
    31    11     4    1
    32    10     6    1
    33     8    12    1
@<TRIPOS>MOLECULE
*****
 30 33 0 0 0
SMALL
GASTEIGER

@<TRIPOS>ATOM
      1 C          65.4161   91.3182   13.5532 C.2     1  UNL1        0.2685
      2 O          66.3991   91.0997   14.6649 O.2     1  UNL1       -0.2682
      3 N          64.1747   90.4799   13.4742 N.am    1  UNL1       -0.2723
      4 C          63.9163   89.4233   14.5070 C.3     1  UNL1        0.0761
      5 C          64.3139   87.9802   14.4105 C.3     1  UNL1        0.0213
      6 C          63.8582   87.2891   15.6615 C.3     1  UNL1        0.0188
      7 C          63.8224   85.9702   16.3749 C.3     1  UNL1        0.0686
      8 N          63.1209   86.1711   17.6855 N.3     1  UNL1       -0.2975
      9 C          62.7233   87.6142   17.7820 C.3     1  UNL1        0.0686
     10 C          63.1790   88.3052   16.5311 C.3     1  UNL1        0.0188
     11 C          63.2148   89.6242   15.8176 C.3     1  UNL1        0.0213
     12 H          63.7480   85.9327   18.4538 H       1  UNL1        0.1232
     13 C          66.5379   95.9498   11.2793 C.3     1  UNL1        0.1321
     14 N          66.1902   94.5038   11.4752 N.ar    1  UNL1       -0.3057
     15 C          65.9545   93.4984   10.3874 C.ar    1  UNL1        0.1787
     16 N          65.6358   92.1826   11.0334 N.ar    1  UNL1       -0.2192
     17 C          65.6746   92.3749   12.5204 C.ar    1  UNL1        0.1535
     18 C          66.0172   93.8095   12.7936 C.ar    1  UNL1        0.1012
     19 C          63.1917   90.6985   12.3625 C.3     1  UNL1        0.1205
     20 C          62.5216   89.5245   11.7123 C.ar    1  UNL1        0.0007
     21 C          63.0703   88.1427   11.9116 C.ar    1  UNL1       -0.0024
     22 C          62.4002   86.9686   11.2614 C.ar    1  UNL1        0.0028
     23 C          61.1814   87.1765   10.4121 C.ar    1  UNL1        0.0372
     24 C          60.6327   88.5582   10.2129 C.ar    1  UNL1        0.1465
     25 C          61.3028   89.7322   10.8630 C.ar    1  UNL1        0.0346
     26 O          59.4139   88.7660    9.3635 O.3     1  UNL1       -0.4045
     27 C          59.3669   88.2111    7.9707 C.3     1  UNL1        0.5753
     28 F          59.3200   87.6562    6.5778 F       1  UNL1       -0.1328
     29 F          60.1034   89.4163    7.4658 F       1  UNL1       -0.1328
     30 F          58.6305   87.0059    8.4756 F       1  UNL1       -0.1328
@<TRIPOS>BOND
     1    13    14    1
     2    14    15   ar
     3    15    16   ar
     4    16    17   ar
     5    17     1    1
     6     1     2    2
     7     1     3   am
     8     3    19    1
     9    19    20    1
    10    20    21   ar
    11    21    22   ar
    12    22    23   ar
    13    23    24   ar
    14    24    26    1
    15    26    27    1
    16    27    28    1
    17    27    29    1
    18    27    30    1
    19    24    25   ar
    20     4     3    1
    21     4     5    1
    22     6     5    1
    23     6     7    1
    24     7     8    1
    25     8     9    1
    26    10     9    1
    27    10    11    1
    28    17    18   ar
    29    18    14   ar
    30    25    20   ar
    31    11     4    1
    32    10     6    1
    33     8    12    1
@<TRIPOS>MOLECULE
*****
 30 33 0 0 0
SMALL
GASTEIGER

@<TRIPOS>ATOM
      1 C          63.9005   90.8904   12.1194 C.2     1  UNL1        0.2685
      2 O          64.9120   91.4477   11.1622 O.2     1  UNL1       -0.2682
      3 N          64.1593   90.9385   13.5961 N.am    1  UNL1       -0.2723
      4 C          65.4295   91.5439   14.1156 C.3     1  UNL1        0.0761
      5 C          65.5844   92.2993   15.4023 C.3     1  UNL1        0.0213
      6 C          67.0185   92.7225   15.5216 C.3     1  UNL1        0.0188
      7 C          68.0005   93.4509   16.3905 C.3     1  UNL1        0.0686
      8 N          69.3389   93.4074   15.7146 N.3     1  UNL1       -0.2975
      9 C          69.1840   92.6520   14.4279 C.3     1  UNL1        0.0686
     10 C          67.7499   92.2288   14.3086 C.3     1  UNL1        0.0188
     11 C          66.7679   91.5003   13.4397 C.3     1  UNL1        0.0213
     12 H          70.0144   92.9341   16.3146 H       1  UNL1        0.1232
     13 C          60.3510   87.3907   10.3775 C.3     1  UNL1        0.1321
     14 N          60.9988   88.6763   10.7992 N.ar    1  UNL1       -0.3057
     15 C          60.3526   90.0299   10.8013 C.ar    1  UNL1        0.1787
     16 N          61.3609   91.0241   11.2962 N.ar    1  UNL1       -0.2192
     17 C          62.6303   90.2849   11.5998 C.ar    1  UNL1        0.1535
     18 C          62.4065   88.8339   11.2927 C.ar    1  UNL1        0.1012
     19 C          63.1477   90.3811   14.5533 C.3     1  UNL1        0.1205
     20 C          63.3726   89.0391   15.1847 C.ar    1  UNL1        0.0007
     21 C          62.8977   88.7794   16.5836 C.ar    1  UNL1       -0.0024
     22 C          63.1226   87.4374   17.2150 C.ar    1  UNL1        0.0028
     23 C          63.8223   86.3552   16.4473 C.ar    1  UNL1        0.0372
     24 C          64.2971   86.6150   15.0484 C.ar    1  UNL1        0.1465
     25 C          64.0722   87.9569   14.4171 C.ar    1  UNL1        0.0346
     26 O          64.9968   85.5327   14.2807 O.3     1  UNL1       -0.4045
     27 C          64.2285   84.3375   13.8001 C.3     1  UNL1        0.5753
     28 F          63.4601   83.1421   13.3195 F       1  UNL1       -0.1328
     29 F          63.6784   85.1478   12.6641 F       1  UNL1       -0.1328
     30 F          64.7786   83.5270   14.9362 F       1  UNL1       -0.1328
@<TRIPOS>BOND
     1    13    14    1
     2    14    15   ar
     3    15    16   ar
     4    16    17   ar
     5    17     1    1
     6     1     2    2
     7     1     3   am
     8     3    19    1
     9    19    20    1
    10    20    21   ar
    11    21    22   ar
    12    22    23   ar
    13    23    24   ar
    14    24    26    1
    15    26    27    1
    16    27    28    1
    17    27    29    1
    18    27    30    1
    19    24    25   ar
    20     4     3    1
    21     4     5    1
    22     6     5    1
    23     6     7    1
    24     7     8    1
    25     8     9    1
    26    10     9    1
    27    10    11    1
    28    17    18   ar
    29    18    14   ar
    30    25    20   ar
    31    11     4    1
    32    10     6    1
    33     8    12    1
@<TRIPOS>MOLECULE
*****
 30 33 0 0 0
SMALL
GASTEIGER

@<TRIPOS>ATOM
      1 C          63.5666   90.9143   11.5492 C.2     1  UNL1        0.2685
      2 O          64.4019   91.9243   10.8196 O.2     1  UNL1       -0.2682
      3 N          63.9247   90.5164   12.9504 N.am    1  UNL1       -0.2723
      4 C          65.1180   91.1285   13.6221 C.3     1  UNL1        0.0761
      5 C          65.2248   91.4872   15.0746 C.3     1  UNL1        0.0213
      6 C          66.5869   92.0697   15.3095 C.3     1  UNL1        0.0188
      7 C          67.4947   92.6514   16.3523 C.3     1  UNL1        0.0686
      8 N          68.7909   93.0122   15.6894 N.3     1  UNL1       -0.2975
      9 C          68.6843   92.6536   14.2368 C.3     1  UNL1        0.0686
     10 C          67.3221   92.0710   14.0020 C.3     1  UNL1        0.0188
     11 C          66.4144   91.4893   12.9591 C.3     1  UNL1        0.0213
     12 H          69.5560   92.4922   16.1191 H       1  UNL1        0.1232
     13 C          60.5274   87.7124    8.6524 C.3     1  UNL1        0.1321
     14 N          60.9763   88.8305    9.5459 N.ar    1  UNL1       -0.3057
     15 C          60.0975   89.8902   10.1414 C.ar    1  UNL1        0.1787
     16 N          60.9609   90.7998   10.9643 N.ar    1  UNL1       -0.2192
     17 C          62.3732   90.3023   10.8774 C.ar    1  UNL1        0.1535
     18 C          62.3828   89.0851   10.0008 C.ar    1  UNL1        0.1012
     19 C          63.0894   89.5064   13.6799 C.3     1  UNL1        0.1205
     20 C          63.5414   88.0786   13.7627 C.ar    1  UNL1        0.0007
     21 C          64.4456   87.6415   14.8769 C.ar    1  UNL1       -0.0024
     22 C          64.8976   86.2136   14.9597 C.ar    1  UNL1        0.0028
     23 C          64.4455   85.2229   13.9281 C.ar    1  UNL1        0.0372
     24 C          63.5414   85.6599   12.8140 C.ar    1  UNL1        0.1465
     25 C          63.0894   87.0878   12.7312 C.ar    1  UNL1        0.0346
     26 O          63.0893   84.6691   11.7824 O.3     1  UNL1       -0.4045
     27 C          63.4741   83.2250   11.9103 C.3     1  UNL1        0.5753
     28 F          63.8590   81.7808   12.0382 F       1  UNL1       -0.1328
     29 F          62.2554   82.9744   12.7480 F       1  UNL1       -0.1328
     30 F          64.6929   83.4755   11.0726 F       1  UNL1       -0.1328
@<TRIPOS>BOND
     1    13    14    1
     2    14    15   ar
     3    15    16   ar
     4    16    17   ar
     5    17     1    1
     6     1     2    2
     7     1     3   am
     8     3    19    1
     9    19    20    1
    10    20    21   ar
    11    21    22   ar
    12    22    23   ar
    13    23    24   ar
    14    24    26    1
    15    26    27    1
    16    27    28    1
    17    27    29    1
    18    27    30    1
    19    24    25   ar
    20     4     3    1
    21     4     5    1
    22     6     5    1
    23     6     7    1
    24     7     8    1
    25     8     9    1
    26    10     9    1
    27    10    11    1
    28    17    18   ar
    29    18    14   ar
    30    25    20   ar
    31    11     4    1
    32    10     6    1
    33     8    12    1
@<TRIPOS>MOLECULE
*****
 30 33 0 0 0
SMALL
GASTEIGER

@<TRIPOS>ATOM
      1 C          62.6112   89.1596   10.7064 C.2     1  UNL1        0.2685
      2 O          63.1091   90.4655   10.1619 O.2     1  UNL1       -0.2682
      3 N          62.8216   88.8209   12.1524 N.am    1  UNL1       -0.2723
      4 C          63.5300   89.7880   13.0539 C.3     1  UNL1        0.0761
      5 C          63.2201   90.0339   14.5008 C.3     1  UNL1        0.0213
      6 C          64.1713   91.0770   15.0079 C.3     1  UNL1        0.0188
      7 C          64.5675   91.8736   16.2155 C.3     1  UNL1        0.0686
      8 N          65.7103   92.7648   15.8284 N.3     1  UNL1       -0.2975
      9 C          66.0202   92.5190   14.3814 C.3     1  UNL1        0.0686
     10 C          65.0690   91.4759   13.8744 C.3     1  UNL1        0.0188
     11 C          64.6728   90.6793   12.6667 C.3     1  UNL1        0.0213
     12 H          66.5273   92.5477   16.3991 H       1  UNL1        0.1232
     13 C          58.9438   86.9127    7.6434 C.3     1  UNL1        0.1321
     14 N          60.2171   87.1596    8.3970 N.ar    1  UNL1       -0.3057
     15 C          61.4080   86.2488    8.4382 C.ar    1  UNL1        0.1787
     16 N          62.4498   86.8871    9.3084 N.ar    1  UNL1       -0.2192
     17 C          61.9027   88.1924    9.8049 C.ar    1  UNL1        0.1535
     18 C          60.5228   88.3609    9.2416 C.ar    1  UNL1        0.1012
     19 C          62.3236   87.5149   12.6970 C.3     1  UNL1        0.1205
     20 C          63.2954   86.5090   13.2390 C.ar    1  UNL1        0.0007
     21 C          64.2680   86.9069   14.3094 C.ar    1  UNL1       -0.0024
     22 C          65.2398   85.9009   14.8514 C.ar    1  UNL1        0.0028
     23 C          65.2389   84.4971   14.3229 C.ar    1  UNL1        0.0372
     24 C          64.2664   84.0992   13.2525 C.ar    1  UNL1        0.1465
     25 C          63.2946   85.1051   12.7105 C.ar    1  UNL1        0.0346
     26 O          64.2655   82.6953   12.7241 O.3     1  UNL1       -0.4045
     27 C          63.8991   82.4328   11.2934 C.3     1  UNL1        0.5753
     28 F          63.5328   82.1703    9.8626 F       1  UNL1       -0.1328
     29 F          65.1038   83.2049   10.8432 F       1  UNL1       -0.1328
     30 F          62.6945   81.6607   11.7434 F       1  UNL1       -0.1328
@<TRIPOS>BOND
     1    13    14    1
     2    14    15   ar
     3    15    16   ar
     4    16    17   ar
     5    17     1    1
     6     1     2    2
     7     1     3   am
     8     3    19    1
     9    19    20    1
    10    20    21   ar
    11    21    22   ar
    12    22    23   ar
    13    23    24   ar
    14    24    26    1
    15    26    27    1
    16    27    28    1
    17    27    29    1
    18    27    30    1
    19    24    25   ar
    20     4     3    1
    21     4     5    1
    22     6     5    1
    23     6     7    1
    24     7     8    1
    25     8     9    1
    26    10     9    1
    27    10    11    1
    28    17    18   ar
    29    18    14   ar
    30    25    20   ar
    31    11     4    1
    32    10     6    1
    33     8    12    1
@<TRIPOS>MOLECULE
*****
 30 33 0 0 0
SMALL
GASTEIGER

@<TRIPOS>ATOM
      1 C          59.9399   87.9615    7.5383 C.2     1  UNL1        0.2685
      2 O          59.9575   86.5707    6.9769 O.2     1  UNL1       -0.2682
      3 N          60.5873   88.2444    8.8615 N.am    1  UNL1       -0.2723
      4 C          61.2523   87.1366    9.6232 C.3     1  UNL1        0.0761
      5 C          61.0108   86.7870   11.0618 C.3     1  UNL1        0.0213
      6 C          61.8848   85.6181   11.4078 C.3     1  UNL1        0.0188
      7 C          62.2757   84.6796   12.5108 C.3     1  UNL1        0.0686
      8 N          63.2990   83.7268   11.9677 N.3     1  UNL1       -0.2975
      9 C          63.5405   84.0763   10.5291 C.3     1  UNL1        0.0686
     10 C          62.6665   85.2452   10.1831 C.3     1  UNL1        0.0188
     11 C          62.2756   86.1837    9.0802 C.3     1  UNL1        0.0213
     12 H          62.9527   82.7699   12.0380 H       1  UNL1        0.1232
     13 C          59.1723   92.1976    4.4811 C.3     1  UNL1        0.1321
     14 N          58.9220   91.0165    5.3713 N.ar    1  UNL1       -0.3057
     15 C          57.5811   90.5320    5.8371 C.ar    1  UNL1        0.1787
     16 N          57.7992   89.3286    6.7057 N.ar    1  UNL1       -0.2192
     17 C          59.2748   89.0694    6.7765 C.ar    1  UNL1        0.1535
     18 C          59.9688   90.1126    5.9518 C.ar    1  UNL1        0.1012
     19 C          60.5696   89.6354    9.4229 C.3     1  UNL1        0.1205
     20 C          61.6903   90.1029   10.3035 C.ar    1  UNL1        0.0007
     21 C          62.7440   91.0182    9.7541 C.ar    1  UNL1       -0.0024
     22 C          63.8647   91.4858   10.6347 C.ar    1  UNL1        0.0028
     23 C          63.9316   91.0380   12.0648 C.ar    1  UNL1        0.0372
     24 C          62.8779   90.1227   12.6141 C.ar    1  UNL1        0.1465
     25 C          61.7572   89.6552   11.7336 C.ar    1  UNL1        0.0346
     26 O          62.9448   89.6749   14.0442 O.3     1  UNL1       -0.4045
     27 C          63.9466   88.6385   14.4594 C.3     1  UNL1        0.5753
     28 F          64.9483   87.6021   14.8747 F       1  UNL1       -0.1328
     29 F          64.0063   89.2453   15.8299 F       1  UNL1       -0.1328
     30 F          63.8869   88.0317   13.0890 F       1  UNL1       -0.1328
@<TRIPOS>BOND
     1    13    14    1
     2    14    15   ar
     3    15    16   ar
     4    16    17   ar
     5    17     1    1
     6     1     2    2
     7     1     3   am
     8     3    19    1
     9    19    20    1
    10    20    21   ar
    11    21    22   ar
    12    22    23   ar
    13    23    24   ar
    14    24    26    1
    15    26    27    1
    16    27    28    1
    17    27    29    1
    18    27    30    1
    19    24    25   ar
    20     4     3    1
    21     4     5    1
    22     6     5    1
    23     6     7    1
    24     7     8    1
    25     8     9    1
    26    10     9    1
    27    10    11    1
    28    17    18   ar
    29    18    14   ar
    30    25    20   ar
    31    11     4    1
    32    10     6    1
    33     8    12    1
