@<TRIPOS>MOLECULE
*****
 40 45 0 0 0
SMALL
GASTEIGER

@<TRIPOS>ATOM
      1 C          73.4737   78.7838   15.3466 C.ar    1  UNL1        0.2400
      2 N          73.4639   77.6994   16.3830 N.ar    1  UNL1       -0.2090
      3 C          73.4762   76.2597   15.9623 C.ar    1  UNL1        0.1021
      4 C          73.4986   75.5580   14.5895 C.ar    1  UNL1        0.0207
      5 C          73.4933   77.0549   14.4925 C.ar    1  UNL1        0.0221
      6 C          73.4958   78.4283   13.8894 C.ar    1  UNL1        0.1178
      7 N          73.5056   79.5127   12.8530 N.pl3   1  UNL1       -0.2104
      8 S          73.5216   80.1771   11.5083 S.O2    1  UNL1        0.0737
      9 O          73.5215   81.6112   11.0687 O.2     1  UNL1       -0.1499
     10 O          73.5012   81.1487   12.6509 O.2     1  UNL1       -0.1499
     11 C          73.5419   80.3415   10.0174 C.ar    1  UNL1        0.1253
     12 C          73.5443   81.7149    9.4144 C.ar    1  UNL1        0.0202
     13 C          73.5646   81.8793    7.9236 C.ar    1  UNL1        0.0015
     14 C          73.5824   80.6703    7.0359 C.ar    1  UNL1        0.0046
     15 C          73.5800   79.2970    7.6389 C.ar    1  UNL1        0.0547
     16 C          73.5597   79.1326    9.1297 C.ar    1  UNL1        0.0247
     17 C          73.6031   77.9447    6.4250 C.2     1  UNL1        0.2461
     18 O          73.6191   78.6091    5.0802 O.2     1  UNL1       -0.2701
     19 N          73.6154   76.5050    6.0043 N.am    1  UNL1       -0.2969
     20 C          73.6206   75.0082    6.1013 C.3     1  UNL1        0.1166
     21 C          73.6182   73.6347    6.7045 C.ar    1  UNL1       -0.0025
     22 C          73.6329   72.2148    6.1039 C.ar    1  UNL1       -0.0026
     23 C          73.6305   70.8414    6.7071 C.ar    1  UNL1       -0.0002
     24 C          73.6102   70.6770    8.1979 C.ar    1  UNL1        0.0015
     25 C          73.5924   71.8859    9.0856 C.ar    1  UNL1        0.0175
     26 C          73.6084   72.5504    7.7408 C.ar    1  UNL1       -0.0011
     27 C          73.5721   71.7215   10.5764 C.ar    1  UNL1        0.0844
     28 N          73.5844   70.2817   10.1557 N.ar    1  UNL1       -0.2240
     29 C          73.5746   69.1975   11.1921 C.ar    1  UNL1        0.1988
     30 N          73.5525   69.5528   12.6492 N.ar    1  UNL1       -0.2240
     31 C          73.5402   70.9926   13.0699 C.ar    1  UNL1        0.0845
     32 C          73.5154   71.5648   14.6480 C.ar    1  UNL1        0.0192
     33 C          73.5022   72.9799   15.1455 C.ar    1  UNL1        0.0016
     34 C          73.5109   74.1184   14.1688 C.ar    1  UNL1        0.0017
     35 C          73.5287   72.9094   13.2811 C.ar    1  UNL1        0.0030
     36 C          73.5500   72.0770   12.0335 C.ar    1  UNL1        0.0354
     37 H          73.4939   80.3062   13.4357 H       1  UNL1        0.1739
     38 H          73.6287   76.6129    5.0259 H       1  UNL1        0.1501
     39 C          73.6268   80.5836   17.2140 C.3     1  UNL1        0.2543
     40 O          73.4614   80.2234   15.7673 O.3     1  UNL1       -0.4553
@<TRIPOS>BOND
     1    39    40    1
     2    40     1    1
     3     1     2   ar
     4     2     3   ar
     5     3     4   ar
     6     4     5   ar
     7     5     6   ar
     8     6     7    1
     9     7     8    1
    10     8     9    2
    11     8    10    2
    12     8    11    1
    13    11    12   ar
    14    12    13   ar
    15    13    14   ar
    16    14    15   ar
    17    15    16   ar
    18    15    17    1
    19    17    18    2
    20    17    19   am
    21    19    20    1
    22    20    21    1
    23    21    22   ar
    24    22    23   ar
    25    23    24   ar
    26    24    25   ar
    27    25    26   ar
    28    25    27    1
    29    27    28   ar
    30    28    29   ar
    31    29    30   ar
    32    30    31   ar
    33    31    32   ar
    34    32    33   ar
    35    33    34   ar
    36    34    35   ar
    37    35    36   ar
    38     6     1   ar
    39    16    11   ar
    40    26    21   ar
    41    36    27   ar
    42    34     4    1
    43    36    31   ar
    44     7    37    1
    45    19    38    1
