@<TRIPOS>MOLECULE
*****
 30 32 0 0 0
SMALL
GASTEIGER

@<TRIPOS>ATOM
      1 N          62.7289   89.5913   12.6973 N.am    1  UNL1       -0.2684
      2 C          62.2924   88.9536   11.4117 C.2     1  UNL1        0.2418
      3 O          62.8871   89.4050   10.1107 O.2     1  UNL1       -0.2733
      4 H          62.3386   89.2950   13.5511 H       1  UNL1        0.1563
      5 C          64.1887   90.8878   15.3122 C.3     1  UNL1        0.1552
      6 N          64.4312   91.2764   13.8839 N.ar    1  UNL1       -0.2356
      7 N          65.3872   92.3292   13.4066 N.ar    1  UNL1       -0.1681
      8 C          65.3070   92.3839   11.9098 C.ar    1  UNL1        0.1038
      9 C          64.3015   91.3650   11.4619 C.ar    1  UNL1        0.0549
     10 C          63.7602   90.6805   12.6819 C.ar    1  UNL1        0.1327
     11 C          66.0942   93.2973   11.0175 C.ar    1  UNL1        0.0225
     12 C          67.1838   92.7416   10.1491 C.ar    1  UNL1        0.0222
     13 C          67.9709   93.6550    9.2569 C.ar    1  UNL1        0.0989
     14 N          67.6686   95.1240    9.2330 N.ar    1  UNL1       -0.2423
     15 C          66.5790   95.6797   10.1014 C.ar    1  UNL1        0.0989
     16 C          65.7919   94.7663   10.9936 C.ar    1  UNL1        0.0222
     17 C          61.2611   87.8644   11.4271 C.3     1  UNL1        0.1365
     18 N          59.8385   88.1836   11.7792 N.3     1  UNL1       -0.2863
     19 H          59.5669   87.5384   12.5211 H       1  UNL1        0.1240
     20 C          59.4727   89.5609   12.2476 C.3     1  UNL1        0.1113
     21 C          59.2565   90.6597   11.2496 C.2     1  UNL1        0.0663
     22 O          58.5018   91.8942   11.6450 O.co2   1  UNL1       -0.5477
     23 O          59.7951   90.5240    9.8562 O.co2   1  UNL1       -0.5477
     24 C          61.6526   86.4561   11.0904 C.3     1  UNL1        0.0514
     25 C          61.6514   85.9985    9.6620 C.ar    1  UNL1       -0.0203
     26 C          62.8608   85.3193    9.0909 C.ar    1  UNL1       -0.0042
     27 C          62.8596   84.8617    7.6625 C.ar    1  UNL1       -0.0003
     28 C          61.6490   85.0832    6.8050 C.ar    1  UNL1       -0.0000
     29 C          60.4396   85.7624    7.3759 C.ar    1  UNL1       -0.0003
     30 C          60.4408   86.2200    8.8044 C.ar    1  UNL1       -0.0042
@<TRIPOS>UNITY_ATOM_ATTR
22 1
charge -1
@<TRIPOS>BOND
     1     5     6    1
     2     6     7   ar
     3     7     8   ar
     4     8    11    1
     5    11    12   ar
     6    12    13   ar
     7    13    14   ar
     8    14    15   ar
     9    15    16   ar
    10     8     9   ar
    11     9    10   ar
    12    10     1    1
    13     1     2   am
    14     2     3    2
    15     2    17    1
    16    17    24    1
    17    24    25    1
    18    25    26   ar
    19    26    27   ar
    20    27    28   ar
    21    28    29   ar
    22    29    30   ar
    23    17    18    1
    24    18    20    1
    25    20    21    1
    26    21    22   ar
    27    21    23   ar
    28    10     6   ar
    29    30    25   ar
    30    16    11   ar
    31     1     4    1
    32    18    19    1
@<TRIPOS>MOLECULE
*****
 30 32 0 0 0
SMALL
GASTEIGER

@<TRIPOS>ATOM
      1 N          62.3885   89.6794   12.2840 N.am    1  UNL1       -0.2684
      2 C          62.1418   89.0074   10.9658 C.2     1  UNL1        0.2418
      3 O          63.0040   89.3364    9.7833 O.2     1  UNL1       -0.2733
      4 H          61.8226   89.4635   13.0601 H       1  UNL1        0.1563
      5 C          63.7799   90.6339   15.0773 C.3     1  UNL1        0.1552
      6 N          64.1370   91.1190   13.7036 N.ar    1  UNL1       -0.2356
      7 N          65.1964   92.1281   13.3726 N.ar    1  UNL1       -0.1681
      8 C          65.2116   92.3130   11.8841 C.ar    1  UNL1        0.1038
      9 C          64.1616   91.4182   11.2952 C.ar    1  UNL1        0.0549
     10 C          63.4975   90.6803   12.4196 C.ar    1  UNL1        0.1327
     11 C          66.1178   93.2314   11.1190 C.ar    1  UNL1        0.0225
     12 C          67.1777   92.6636   10.2223 C.ar    1  UNL1        0.0222
     13 C          68.0838   93.5820    9.4572 C.ar    1  UNL1        0.0989
     14 N          67.9299   95.0683    9.5887 N.ar    1  UNL1       -0.2423
     15 C          66.8700   95.6361   10.4854 C.ar    1  UNL1        0.0989
     16 C          65.9639   94.7177   11.2505 C.ar    1  UNL1        0.0222
     17 C          61.0328   88.0065   10.8302 C.3     1  UNL1        0.1365
     18 N          59.8087   88.3469   10.0330 N.3     1  UNL1       -0.2863
     19 H          59.2248   88.9357   10.6269 H       1  UNL1        0.1240
     20 C          59.9433   89.0565    8.7182 C.3     1  UNL1        0.1113
     21 C          59.3055   88.4829    7.4877 C.2     1  UNL1        0.0663
     22 O          58.9784   87.0203    7.4246 O.co2   1  UNL1       -0.5477
     23 O          58.9947   89.3719    6.3201 O.co2   1  UNL1       -0.5477
     24 C          61.1480   86.6653   11.4918 C.3     1  UNL1        0.0514
     25 C          62.0570   85.6205   10.9157 C.ar    1  UNL1       -0.0203
     26 C          62.5769   84.5156   11.7870 C.ar    1  UNL1       -0.0042
     27 C          63.4860   83.4708   11.2109 C.ar    1  UNL1       -0.0003
     28 C          63.8753   83.5308    9.7636 C.ar    1  UNL1       -0.0000
     29 C          63.3554   84.6356    8.8923 C.ar    1  UNL1       -0.0003
     30 C          62.4463   85.6804    9.4684 C.ar    1  UNL1       -0.0042
@<TRIPOS>UNITY_ATOM_ATTR
22 1
charge -1
@<TRIPOS>BOND
     1     5     6    1
     2     6     7   ar
     3     7     8   ar
     4     8    11    1
     5    11    12   ar
     6    12    13   ar
     7    13    14   ar
     8    14    15   ar
     9    15    16   ar
    10     8     9   ar
    11     9    10   ar
    12    10     1    1
    13     1     2   am
    14     2     3    2
    15     2    17    1
    16    17    24    1
    17    24    25    1
    18    25    26   ar
    19    26    27   ar
    20    27    28   ar
    21    28    29   ar
    22    29    30   ar
    23    17    18    1
    24    18    20    1
    25    20    21    1
    26    21    22   ar
    27    21    23   ar
    28    10     6   ar
    29    30    25   ar
    30    16    11   ar
    31     1     4    1
    32    18    19    1
@<TRIPOS>MOLECULE
*****
 30 32 0 0 0
SMALL
GASTEIGER

@<TRIPOS>ATOM
      1 N          61.9896   89.6786   13.0841 N.am    1  UNL1       -0.2684
      2 C          63.3548   90.2999   13.0921 C.2     1  UNL1        0.2418
      3 O          64.1593   90.3590   11.8275 O.2     1  UNL1       -0.2733
      4 H          61.4615   89.6398   13.9141 H       1  UNL1        0.1563
      5 C          59.3296   90.7460   11.5236 C.3     1  UNL1        0.1552
      6 N          60.2062   89.6070   11.0942 N.ar    1  UNL1       -0.2356
      7 N          60.0141   88.7587    9.8722 N.ar    1  UNL1       -0.1681
      8 C          61.1179   87.7438    9.8342 C.ar    1  UNL1        0.1038
      9 C          61.9923   87.9648   11.0327 C.ar    1  UNL1        0.0549
     10 C          61.4288   89.1164   11.8115 C.ar    1  UNL1        0.1327
     11 C          61.3131   86.6923    8.7822 C.ar    1  UNL1        0.0225
     12 C          62.6350   85.9950    8.6550 C.ar    1  UNL1        0.0222
     13 C          62.8301   84.9437    7.6031 C.ar    1  UNL1        0.0989
     14 N          61.7034   84.5896    6.6785 N.ar    1  UNL1       -0.2423
     15 C          60.3814   85.2870    6.8057 C.ar    1  UNL1        0.0989
     16 C          60.1863   86.3383    7.8576 C.ar    1  UNL1        0.0222
     17 C          63.9155   90.8621   14.3647 C.3     1  UNL1        0.1365
     18 N          64.8348   92.0465   14.3204 N.3     1  UNL1       -0.2863
     19 H          64.6312   92.6084   15.1470 H       1  UNL1        0.1240
     20 C          66.3205   91.8420   14.2909 C.3     1  UNL1        0.1113
     21 C          67.1011   92.1896   13.0580 C.2     1  UNL1        0.0663
     22 O          68.5703   91.8945   12.9924 O.co2   1  UNL1       -0.5477
     23 O          66.4124   92.8324   11.8907 O.co2   1  UNL1       -0.5477
     24 C          63.5569   90.2399   15.6816 C.3     1  UNL1        0.0514
     25 C          63.6235   88.7510   15.8505 C.ar    1  UNL1       -0.0203
     26 C          64.3339   87.9114   14.8305 C.ar    1  UNL1       -0.0042
     27 C          64.4005   86.4225   14.9994 C.ar    1  UNL1       -0.0003
     28 C          63.7565   85.7730   16.1883 C.ar    1  UNL1       -0.0000
     29 C          63.0460   86.6126   17.2083 C.ar    1  UNL1       -0.0003
     30 C          62.9795   88.1015   17.0394 C.ar    1  UNL1       -0.0042
@<TRIPOS>UNITY_ATOM_ATTR
22 1
charge -1
@<TRIPOS>BOND
     1     5     6    1
     2     6     7   ar
     3     7     8   ar
     4     8    11    1
     5    11    12   ar
     6    12    13   ar
     7    13    14   ar
     8    14    15   ar
     9    15    16   ar
    10     8     9   ar
    11     9    10   ar
    12    10     1    1
    13     1     2   am
    14     2     3    2
    15     2    17    1
    16    17    24    1
    17    24    25    1
    18    25    26   ar
    19    26    27   ar
    20    27    28   ar
    21    28    29   ar
    22    29    30   ar
    23    17    18    1
    24    18    20    1
    25    20    21    1
    26    21    22   ar
    27    21    23   ar
    28    10     6   ar
    29    30    25   ar
    30    16    11   ar
    31     1     4    1
    32    18    19    1
@<TRIPOS>MOLECULE
*****
 30 32 0 0 0
SMALL
GASTEIGER

@<TRIPOS>ATOM
      1 N          63.0144   89.1505   12.4967 N.am    1  UNL1       -0.2684
      2 C          62.4537   88.7402   11.1674 C.2     1  UNL1        0.2418
      3 O          62.7536   89.5538    9.9435 O.2     1  UNL1       -0.2733
      4 H          62.8176   88.6165   13.3000 H       1  UNL1        0.1563
      5 C          63.9238   90.6235   15.2632 C.3     1  UNL1        0.1552
      6 N          64.2930   91.0516   13.8738 N.ar    1  UNL1       -0.2356
      7 N          65.1450   92.2320   13.5120 N.ar    1  UNL1       -0.1681
      8 C          65.2536   92.2844   12.0168 C.ar    1  UNL1        0.1038
      9 C          64.4687   91.1365   11.4545 C.ar    1  UNL1        0.0549
     10 C          63.8750   90.3746   12.6022 C.ar    1  UNL1        0.1327
     11 C          66.0137   93.3055   11.2233 C.ar    1  UNL1        0.0225
     12 C          65.8360   94.7661   11.5149 C.ar    1  UNL1        0.0222
     13 C          66.5961   95.7872   10.7214 C.ar    1  UNL1        0.0989
     14 N          67.5338   95.3476    9.6362 N.ar    1  UNL1       -0.2423
     15 C          67.7114   93.8870    9.3446 C.ar    1  UNL1        0.0989
     16 C          66.9513   92.8660   10.1381 C.ar    1  UNL1        0.0222
     17 C          61.5931   87.5161   11.0620 C.3     1  UNL1        0.1365
     18 N          61.6105   86.4906   12.1564 N.3     1  UNL1       -0.2863
     19 H          60.7390   85.9659   12.0822 H       1  UNL1        0.1240
     20 C          62.7189   85.4821   12.2216 C.3     1  UNL1        0.1113
     21 C          63.6474   85.4631   13.3997 C.2     1  UNL1        0.0663
     22 O          64.3445   84.1920   13.7848 O.co2   1  UNL1       -0.5477
     23 O          63.8786   86.7152   14.1926 O.co2   1  UNL1       -0.5477
     24 C          60.7151   87.3176    9.8621 C.3     1  UNL1        0.0514
     25 C          61.1539   86.4068    8.7541 C.ar    1  UNL1       -0.0203
     26 C          60.1826   86.0056    7.6838 C.ar    1  UNL1       -0.0042
     27 C          60.6214   85.0948    6.5758 C.ar    1  UNL1       -0.0003
     28 C          62.0316   84.5850    6.5380 C.ar    1  UNL1       -0.0000
     29 C          63.0030   84.9862    7.6083 C.ar    1  UNL1       -0.0003
     30 C          62.5641   85.8970    8.7164 C.ar    1  UNL1       -0.0042
@<TRIPOS>UNITY_ATOM_ATTR
22 1
charge -1
@<TRIPOS>BOND
     1     5     6    1
     2     6     7   ar
     3     7     8   ar
     4     8    11    1
     5    11    12   ar
     6    12    13   ar
     7    13    14   ar
     8    14    15   ar
     9    15    16   ar
    10     8     9   ar
    11     9    10   ar
    12    10     1    1
    13     1     2   am
    14     2     3    2
    15     2    17    1
    16    17    24    1
    17    24    25    1
    18    25    26   ar
    19    26    27   ar
    20    27    28   ar
    21    28    29   ar
    22    29    30   ar
    23    17    18    1
    24    18    20    1
    25    20    21    1
    26    21    22   ar
    27    21    23   ar
    28    10     6   ar
    29    30    25   ar
    30    16    11   ar
    31     1     4    1
    32    18    19    1
@<TRIPOS>MOLECULE
*****
 30 32 0 0 0
SMALL
GASTEIGER

@<TRIPOS>ATOM
      1 N          62.6971   90.7030   13.4816 N.am    1  UNL1       -0.2684
      2 C          63.4409   89.8034   14.4237 C.2     1  UNL1        0.2418
      3 O          63.9905   88.4959   13.9355 O.2     1  UNL1       -0.2733
      4 H          62.3364   91.5612   13.8021 H       1  UNL1        0.1563
      5 C          64.3451   91.8639   10.9152 C.3     1  UNL1        0.1552
      6 N          63.2604   90.8287   10.8716 N.ar    1  UNL1       -0.2356
      7 N          62.7428   90.1453    9.6408 N.ar    1  UNL1       -0.1681
      8 C          61.6654   89.1894   10.0597 C.ar    1  UNL1        0.1038
      9 C          61.5172   89.2819   11.5494 C.ar    1  UNL1        0.0549
     10 C          62.5029   90.2951   12.0513 C.ar    1  UNL1        0.1327
     11 C          60.8750   88.2974    9.1487 C.ar    1  UNL1        0.0225
     12 C          59.7784   88.8725    8.3021 C.ar    1  UNL1        0.0222
     13 C          58.9881   87.9806    7.3912 C.ar    1  UNL1        0.0989
     14 N          59.2944   86.5136    7.3268 N.ar    1  UNL1       -0.2423
     15 C          60.3911   85.9385    8.1733 C.ar    1  UNL1        0.0989
     16 C          61.1814   86.8305    9.0843 C.ar    1  UNL1        0.0222
     17 C          63.6351   90.2114   15.8541 C.3     1  UNL1        0.1365
     18 N          63.2004   89.2966   16.9604 N.3     1  UNL1       -0.2863
     19 H          62.2336   89.5376   17.1791 H       1  UNL1        0.1240
     20 C          63.2424   87.8100   16.7646 C.3     1  UNL1        0.1113
     21 C          62.3870   86.9172   17.6139 C.2     1  UNL1        0.0663
     22 O          61.3194   86.0761   16.9791 O.co2   1  UNL1       -0.5477
     23 O          62.5992   86.8654   19.0979 O.co2   1  UNL1       -0.5477
     24 C          64.2640   91.5341   16.1780 C.3     1  UNL1        0.0514
     25 C          65.6256   91.8677   15.6447 C.ar    1  UNL1       -0.0203
     26 C          66.0353   91.3910   14.2828 C.ar    1  UNL1       -0.0042
     27 C          67.3970   91.7247   13.7495 C.ar    1  UNL1       -0.0003
     28 C          68.3491   92.5351   14.5782 C.ar    1  UNL1       -0.0000
     29 C          67.9395   93.0118   15.9401 C.ar    1  UNL1       -0.0003
     30 C          66.5777   92.6781   16.4734 C.ar    1  UNL1       -0.0042
@<TRIPOS>UNITY_ATOM_ATTR
22 1
charge -1
@<TRIPOS>BOND
     1     5     6    1
     2     6     7   ar
     3     7     8   ar
     4     8    11    1
     5    11    12   ar
     6    12    13   ar
     7    13    14   ar
     8    14    15   ar
     9    15    16   ar
    10     8     9   ar
    11     9    10   ar
    12    10     1    1
    13     1     2   am
    14     2     3    2
    15     2    17    1
    16    17    24    1
    17    24    25    1
    18    25    26   ar
    19    26    27   ar
    20    27    28   ar
    21    28    29   ar
    22    29    30   ar
    23    17    18    1
    24    18    20    1
    25    20    21    1
    26    21    22   ar
    27    21    23   ar
    28    10     6   ar
    29    30    25   ar
    30    16    11   ar
    31     1     4    1
    32    18    19    1
@<TRIPOS>MOLECULE
*****
 30 32 0 0 0
SMALL
GASTEIGER

@<TRIPOS>ATOM
      1 N          64.8146   89.4343   14.3638 N.am    1  UNL1       -0.2684
      2 C          64.1872   90.2222   13.2522 C.2     1  UNL1        0.2418
      3 O          62.9924   89.6766   12.5279 O.2     1  UNL1       -0.2733
      4 H          65.5988   89.7924   14.8393 H       1  UNL1        0.1563
      5 C          63.1550   88.7761   17.0956 C.3     1  UNL1        0.1552
      6 N          63.4843   87.7983   16.0067 N.ar    1  UNL1       -0.2356
      7 N          63.1086   86.3464   15.9823 N.ar    1  UNL1       -0.1681
      8 C          63.6392   85.7515   14.7116 C.ar    1  UNL1        0.1038
      9 C          64.3429   86.8359   13.9507 C.ar    1  UNL1        0.0549
     10 C          64.2471   88.1009   14.7511 C.ar    1  UNL1        0.1327
     11 C          63.4920   84.3231   14.2780 C.ar    1  UNL1        0.0225
     12 C          64.4395   83.7439   13.2697 C.ar    1  UNL1        0.0222
     13 C          64.2922   82.3156   12.8361 C.ar    1  UNL1        0.0989
     14 N          63.1975   81.4663   13.4109 N.ar    1  UNL1       -0.2423
     15 C          62.2500   82.0455   14.4193 C.ar    1  UNL1        0.0989
     16 C          62.3973   83.4739   14.8528 C.ar    1  UNL1        0.0222
     17 C          64.7547   91.5556   12.8650 C.3     1  UNL1        0.1365
     18 N          65.4981   92.3766   13.8765 N.3     1  UNL1       -0.2863
     19 H          65.0831   92.1707   14.7852 H       1  UNL1        0.1240
     20 C          66.9812   92.2137   14.0308 C.3     1  UNL1        0.1113
     21 C          67.6936   92.8758   15.1729 C.2     1  UNL1        0.0663
     22 O          66.9657   93.1439   16.4567 O.co2   1  UNL1       -0.5477
     23 O          69.1340   93.2699   15.0310 O.co2   1  UNL1       -0.5477
     24 C          64.5788   92.0680   11.4663 C.3     1  UNL1        0.0514
     25 C          65.6693   92.8681   10.8179 C.ar    1  UNL1       -0.0203
     26 C          65.5669   94.3633   10.7557 C.ar    1  UNL1       -0.0042
     27 C          66.6575   95.1634   10.1074 C.ar    1  UNL1       -0.0003
     28 C          67.8504   94.4684    9.5211 C.ar    1  UNL1       -0.0000
     29 C          67.9528   92.9732    9.5833 C.ar    1  UNL1       -0.0003
     30 C          66.8622   92.1731   10.2316 C.ar    1  UNL1       -0.0042
@<TRIPOS>UNITY_ATOM_ATTR
22 1
charge -1
@<TRIPOS>BOND
     1     5     6    1
     2     6     7   ar
     3     7     8   ar
     4     8    11    1
     5    11    12   ar
     6    12    13   ar
     7    13    14   ar
     8    14    15   ar
     9    15    16   ar
    10     8     9   ar
    11     9    10   ar
    12    10     1    1
    13     1     2   am
    14     2     3    2
    15     2    17    1
    16    17    24    1
    17    24    25    1
    18    25    26   ar
    19    26    27   ar
    20    27    28   ar
    21    28    29   ar
    22    29    30   ar
    23    17    18    1
    24    18    20    1
    25    20    21    1
    26    21    22   ar
    27    21    23   ar
    28    10     6   ar
    29    30    25   ar
    30    16    11   ar
    31     1     4    1
    32    18    19    1
@<TRIPOS>MOLECULE
*****
 30 32 0 0 0
SMALL
GASTEIGER

@<TRIPOS>ATOM
      1 N          64.3874   88.4418   14.7255 N.am    1  UNL1       -0.2684
      2 C          63.4793   89.6143   14.9506 C.2     1  UNL1        0.2418
      3 O          62.0824   89.3957   15.4515 O.2     1  UNL1       -0.2733
      4 H          65.3042   88.5853   14.3967 H       1  UNL1        0.1563
      5 C          63.0714   87.3900   17.5204 C.3     1  UNL1        0.1552
      6 N          63.2937   86.5673   16.2860 N.ar    1  UNL1       -0.2356
      7 N          62.9502   85.1167   16.1196 N.ar    1  UNL1       -0.1681
      8 C          63.3427   84.7036   14.7320 C.ar    1  UNL1        0.1038
      9 C          63.9289   85.8989   14.0409 C.ar    1  UNL1        0.0549
     10 C          63.8986   87.0507   15.0013 C.ar    1  UNL1        0.1327
     11 C          63.1780   83.3354   14.1396 C.ar    1  UNL1        0.0225
     12 C          62.0790   82.4362   14.6228 C.ar    1  UNL1        0.0222
     13 C          61.9144   81.0680   14.0304 C.ar    1  UNL1        0.0989
     14 N          62.8488   80.5991   12.9548 N.ar    1  UNL1       -0.2423
     15 C          63.9478   81.4983   12.4715 C.ar    1  UNL1        0.0989
     16 C          64.1124   82.8664   13.0640 C.ar    1  UNL1        0.0222
     17 C          63.9681   91.0053   14.6748 C.3     1  UNL1        0.1365
     18 N          63.6020   91.6879   13.3903 N.3     1  UNL1       -0.2863
     19 H          64.2366   92.4797   13.2863 H       1  UNL1        0.1240
     20 C          63.6436   90.9270   12.0983 C.3     1  UNL1        0.1113
     21 C          62.5053   90.0254   11.7218 C.2     1  UNL1        0.0663
     22 O          62.6171   88.5455   11.9394 O.co2   1  UNL1       -0.5477
     23 O          61.2553   90.6039   11.1278 O.co2   1  UNL1       -0.5477
     24 C          64.8229   91.7137   15.6834 C.3     1  UNL1        0.0514
     25 C          66.2547   92.0274   15.3649 C.ar    1  UNL1       -0.0203
     26 C          67.0695   92.8570   16.3126 C.ar    1  UNL1       -0.0042
     27 C          68.5012   93.1707   15.9941 C.ar    1  UNL1       -0.0003
     28 C          69.1183   92.6549   14.7279 C.ar    1  UNL1       -0.0000
     29 C          68.3036   91.8254   13.7803 C.ar    1  UNL1       -0.0003
     30 C          66.8718   91.5117   14.0988 C.ar    1  UNL1       -0.0042
@<TRIPOS>UNITY_ATOM_ATTR
22 1
charge -1
@<TRIPOS>BOND
     1     5     6    1
     2     6     7   ar
     3     7     8   ar
     4     8    11    1
     5    11    12   ar
     6    12    13   ar
     7    13    14   ar
     8    14    15   ar
     9    15    16   ar
    10     8     9   ar
    11     9    10   ar
    12    10     1    1
    13     1     2   am
    14     2     3    2
    15     2    17    1
    16    17    24    1
    17    24    25    1
    18    25    26   ar
    19    26    27   ar
    20    27    28   ar
    21    28    29   ar
    22    29    30   ar
    23    17    18    1
    24    18    20    1
    25    20    21    1
    26    21    22   ar
    27    21    23   ar
    28    10     6   ar
    29    30    25   ar
    30    16    11   ar
    31     1     4    1
    32    18    19    1
@<TRIPOS>MOLECULE
*****
 30 32 0 0 0
SMALL
GASTEIGER

@<TRIPOS>ATOM
      1 N          64.1326   88.2835   15.0839 N.am    1  UNL1       -0.2684
      2 C          63.7555   89.2460   13.9971 C.2     1  UNL1        0.2418
      3 O          63.0249   88.7564   12.7819 O.2     1  UNL1       -0.2733
      4 H          64.6120   88.6048   15.8815 H       1  UNL1        0.1563
      5 C          63.0080   86.3647   17.4722 C.3     1  UNL1        0.1552
      6 N          63.2622   85.9494   16.0535 N.ar    1  UNL1       -0.2356
      7 N          63.0442   84.5792   15.4833 N.ar    1  UNL1       -0.1681
      8 C          63.4263   84.6143   14.0332 C.ar    1  UNL1        0.1038
      9 C          63.8805   86.0062   13.7071 C.ar    1  UNL1        0.0549
     10 C          63.7791   86.8313   14.9557 C.ar    1  UNL1        0.1327
     11 C          63.3649   83.4601   13.0771 C.ar    1  UNL1        0.0225
     12 C          63.8914   83.6139   11.6810 C.ar    1  UNL1        0.0222
     13 C          63.8301   82.4597   10.7250 C.ar    1  UNL1        0.0989
     14 N          63.2422   81.1518   11.1650 N.ar    1  UNL1       -0.2423
     15 C          62.7157   80.9980   12.5611 C.ar    1  UNL1        0.0989
     16 C          62.7771   82.1521   13.5171 C.ar    1  UNL1        0.0222
     17 C          64.1089   90.6981   14.1254 C.3     1  UNL1        0.1365
     18 N          63.7604   91.6549   13.0240 N.3     1  UNL1       -0.2863
     19 H          63.8098   92.5927   13.4221 H       1  UNL1        0.1240
     20 C          64.5735   91.6760   11.7637 C.3     1  UNL1        0.1113
     21 C          65.4629   92.8464   11.4645 C.2     1  UNL1        0.0663
     22 O          65.9869   93.0541   10.0744 O.co2   1  UNL1       -0.5477
     23 O          65.8282   93.8089   12.5554 O.co2   1  UNL1       -0.5477
     24 C          64.8109   91.1934   15.3549 C.3     1  UNL1        0.0514
     25 C          66.1948   91.7622   15.2506 C.ar    1  UNL1       -0.0203
     26 C          67.1362   91.2569   14.1977 C.ar    1  UNL1       -0.0042
     27 C          68.5201   91.8257   14.0934 C.ar    1  UNL1       -0.0003
     28 C          68.9629   92.9000   15.0420 C.ar    1  UNL1       -0.0000
     29 C          68.0216   93.4054   16.0949 C.ar    1  UNL1       -0.0003
     30 C          66.6376   92.8365   16.1992 C.ar    1  UNL1       -0.0042
@<TRIPOS>UNITY_ATOM_ATTR
22 1
charge -1
@<TRIPOS>BOND
     1     5     6    1
     2     6     7   ar
     3     7     8   ar
     4     8    11    1
     5    11    12   ar
     6    12    13   ar
     7    13    14   ar
     8    14    15   ar
     9    15    16   ar
    10     8     9   ar
    11     9    10   ar
    12    10     1    1
    13     1     2   am
    14     2     3    2
    15     2    17    1
    16    17    24    1
    17    24    25    1
    18    25    26   ar
    19    26    27   ar
    20    27    28   ar
    21    28    29   ar
    22    29    30   ar
    23    17    18    1
    24    18    20    1
    25    20    21    1
    26    21    22   ar
    27    21    23   ar
    28    10     6   ar
    29    30    25   ar
    30    16    11   ar
    31     1     4    1
    32    18    19    1
@<TRIPOS>MOLECULE
*****
 30 32 0 0 0
SMALL
GASTEIGER

@<TRIPOS>ATOM
      1 N          63.8492   86.8706   13.2423 N.am    1  UNL1       -0.2684
      2 C          63.3335   85.5575   13.7521 C.2     1  UNL1        0.2418
      3 O          62.0074   85.0386   13.2808 O.2     1  UNL1       -0.2733
      4 H          64.7196   87.2112   13.5516 H       1  UNL1        0.1563
      5 C          63.6868   90.1258   13.0784 C.3     1  UNL1        0.1552
      6 N          62.9642   89.1610   12.1858 N.ar    1  UNL1       -0.2356
      7 N          62.0400   89.5229   11.0612 N.ar    1  UNL1       -0.1681
      8 C          61.5434   88.2504   10.4414 C.ar    1  UNL1        0.1038
      9 C          62.1607   87.1020   11.1830 C.ar    1  UNL1        0.0549
     10 C          63.0388   87.6647   12.2611 C.ar    1  UNL1        0.1327
     11 C          60.5959   88.1449    9.2833 C.ar    1  UNL1        0.0225
     12 C          60.2273   89.3709    8.5017 C.ar    1  UNL1        0.0222
     13 C          59.2798   89.2654    7.3437 C.ar    1  UNL1        0.0989
     14 N          58.7009   87.9338    6.9672 N.ar    1  UNL1       -0.2423
     15 C          59.0695   86.7077    7.7488 C.ar    1  UNL1        0.0989
     16 C          60.0170   86.8133    8.9068 C.ar    1  UNL1        0.0222
     17 C          64.1440   84.7634   14.7332 C.3     1  UNL1        0.1365
     18 N          64.3168   85.2592   16.1383 N.3     1  UNL1       -0.2863
     19 H          65.3178   85.3916   16.2828 H       1  UNL1        0.1240
     20 C          63.6449   86.5276   16.5740 C.3     1  UNL1        0.1113
     21 C          62.4380   86.4699   17.4629 C.2     1  UNL1        0.0663
     22 O          61.1124   86.0485   16.9015 O.co2   1  UNL1       -0.5477
     23 O          62.5568   86.8337   18.9133 O.co2   1  UNL1       -0.5477
     24 C          64.7815   83.4736   14.3093 C.3     1  UNL1        0.0514
     25 C          64.2410   82.7222   13.1291 C.ar    1  UNL1       -0.0203
     26 C          64.6081   83.1460   11.7378 C.ar    1  UNL1       -0.0042
     27 C          64.0676   82.3946   10.5575 C.ar    1  UNL1       -0.0003
     28 C          63.1598   81.2193   10.7684 C.ar    1  UNL1       -0.0000
     29 C          62.7927   80.7953   12.1596 C.ar    1  UNL1       -0.0003
     30 C          63.3332   81.5468   13.3399 C.ar    1  UNL1       -0.0042
@<TRIPOS>UNITY_ATOM_ATTR
22 1
charge -1
@<TRIPOS>BOND
     1     5     6    1
     2     6     7   ar
     3     7     8   ar
     4     8    11    1
     5    11    12   ar
     6    12    13   ar
     7    13    14   ar
     8    14    15   ar
     9    15    16   ar
    10     8     9   ar
    11     9    10   ar
    12    10     1    1
    13     1     2   am
    14     2     3    2
    15     2    17    1
    16    17    24    1
    17    24    25    1
    18    25    26   ar
    19    26    27   ar
    20    27    28   ar
    21    28    29   ar
    22    29    30   ar
    23    17    18    1
    24    18    20    1
    25    20    21    1
    26    21    22   ar
    27    21    23   ar
    28    10     6   ar
    29    30    25   ar
    30    16    11   ar
    31     1     4    1
    32    18    19    1
