@<TRIPOS>MOLECULE
*****
 45 49 0 0 0
SMALL
GASTEIGER

@<TRIPOS>ATOM
      1 C          65.8675   93.2623   12.7058 C.2     1  UNL1        0.2437
      2 O          66.6966   93.1500   13.9507 O.2     1  UNL1       -0.2731
      3 N          64.9991   92.1166   12.2770 N.am    1  UNL1       -0.2777
      4 C          64.1198   92.0832   11.0623 C.3     1  UNL1        0.0956
      5 C          63.4349   90.7493   11.0224 C.3     1  UNL1        0.0512
      6 C          63.8910   89.9583   12.2124 C.3     1  UNL1        0.1673
      7 C          63.5509   88.5777   12.6902 C.ar    1  UNL1        0.0768
      8 N          62.5842   87.7326   11.9147 N.ar    1  UNL1       -0.2470
      9 C          62.2441   86.3521   12.3925 C.ar    1  UNL1        0.0973
     10 C          62.8708   85.8165   13.6457 C.ar    1  UNL1        0.0423
     11 C          63.8375   86.6615   14.4211 C.ar    1  UNL1       -0.0027
     12 C          64.1775   88.0421   13.9434 C.ar    1  UNL1       -0.0071
     13 C          65.1443   88.8872   14.7188 C.3     1  UNL1        0.0294
     14 C          65.4844   90.2678   14.2411 C.3     1  UNL1        0.0266
     15 C          64.8577   90.8034   12.9879 C.3     1  UNL1        0.1016
     16 N          66.2199   94.6115   10.4254 N.am    1  UNL1       -0.2719
     17 C          66.1463   96.0552   10.0249 C.2     1  UNL1        0.2260
     18 O          66.3889   96.6020    8.6493 O.2     1  UNL1       -0.2749
     19 C          65.7874   96.8560   11.2414 C.3     1  UNL1        0.0875
     20 C          65.6393   95.9072   12.3937 C.3     1  UNL1        0.0388
     21 C          65.9066   94.5200   11.8895 C.3     1  UNL1        0.1525
     22 C          66.5491   93.4612    9.5207 C.3     1  UNL1        0.1100
     23 C          67.9163   92.8452    9.5579 C.3     1  UNL1        0.1268
     24 N          68.9048   91.5383   12.0708 N.1     1  UNL1       -0.1958
     25 C          68.4105   92.1918   10.8143 C.1     1  UNL1        0.0750
     26 S          62.9123   89.2336   11.3367 S.O2    1  UNL1        0.0120
     27 O          63.3679   88.8968   10.7759 O.2     1  UNL1       -0.1683
     28 O          61.7848   89.7059   12.2059 O.2     1  UNL1       -0.1683
     29 C          61.9336   88.5088   10.4610 C.ar    1  UNL1        0.1061
     30 C          60.4692   88.8193   10.5560 C.ar    1  UNL1        0.0207
     31 C          59.4905   88.0945    9.6803 C.ar    1  UNL1        0.0310
     32 C          59.9763   87.0593    8.7096 C.ar    1  UNL1        0.1402
     33 F          58.9975   86.3345    7.8338 F       1  UNL1       -0.2042
     34 C          61.4407   86.7487    8.6146 C.ar    1  UNL1        0.0310
     35 C          62.4193   87.4735    9.4903 C.ar    1  UNL1        0.0207
     36 C          62.5306   84.4358   14.1234 C.3     1  UNL1        0.3256
     37 F          61.4610   85.0053   15.0075 F       1  UNL1       -0.2176
     38 C          62.1905   83.0553   14.6012 C.3     1  UNL1        0.4363
     39 F          61.8503   81.6746   15.0789 F       1  UNL1       -0.1666
     40 F          62.3560   83.5062   16.0221 F       1  UNL1       -0.1666
     41 F          61.9848   82.4394   13.2490 F       1  UNL1       -0.1666
     42 C          63.6003   83.8664   13.2394 C.3     1  UNL1        0.4363
     43 F          64.6699   83.2969   12.3552 F       1  UNL1       -0.1666
     44 F          64.5464   83.4655   14.3320 F       1  UNL1       -0.1666
     45 F          63.0616   84.0527   11.8518 F       1  UNL1       -0.1666
@<TRIPOS>BOND
     1    24    25    3
     2    25    23    1
     3    23    22    1
     4    22    16    1
     5    16    17   am
     6    17    18    2
     7    17    19    1
     8    19    20    1
     9    20    21    1
    10    21     1    1
    11     1     2    2
    12     1     3   am
    13     3     4    1
    14     4     5    1
    15     5     6    1
    16     6    26    1
    17    26    27    2
    18    26    28    2
    19    26    29    1
    20    29    30   ar
    21    30    31   ar
    22    31    32   ar
    23    32    33    1
    24    32    34   ar
    25    34    35   ar
    26     6     7    1
    27     7     8   ar
    28     8     9   ar
    29     9    10   ar
    30    10    36    1
    31    36    37    1
    32    36    38    1
    33    38    39    1
    34    38    40    1
    35    38    41    1
    36    36    42    1
    37    42    43    1
    38    42    44    1
    39    42    45    1
    40    10    11   ar
    41    11    12   ar
    42    12    13    1
    43    13    14    1
    44    15    14    1
    45    21    16    1
    46    15     3    1
    47    15     6    1
    48    35    29   ar
    49    12     7   ar
@<TRIPOS>MOLECULE
*****
 45 49 0 0 0
SMALL
GASTEIGER

@<TRIPOS>ATOM
      1 C          59.3814   88.8718    6.6671 C.2     1  UNL1        0.2437
      2 O          59.0065   87.5152    6.1484 O.2     1  UNL1       -0.2731
      3 N          60.1907   88.9969    7.9239 N.am    1  UNL1       -0.2777
      4 C          60.6387   90.2793    8.5601 C.3     1  UNL1        0.0956
      5 C          61.4190   89.9365    9.7945 C.3     1  UNL1        0.0512
      6 C          61.4532   88.4422    9.9211 C.3     1  UNL1        0.1673
      7 C          62.0776   87.5353   10.9399 C.ar    1  UNL1        0.0768
      8 N          62.8366   88.1161   12.0959 N.ar    1  UNL1       -0.2470
      9 C          63.4610   87.2092   13.1146 C.ar    1  UNL1        0.0973
     10 C          63.3262   85.7216   12.9772 C.ar    1  UNL1        0.0423
     11 C          62.5672   85.1409   11.8211 C.ar    1  UNL1       -0.0027
     12 C          61.9428   86.0477   10.8024 C.ar    1  UNL1       -0.0071
     13 C          61.1837   85.4670    9.6463 C.3     1  UNL1        0.0294
     14 C          60.5594   86.3739    8.6276 C.3     1  UNL1        0.0266
     15 C          60.6941   87.8615    8.7650 C.3     1  UNL1        0.1016
     16 N          59.8428   91.0418    5.1761 N.am    1  UNL1       -0.2719
     17 C          58.9902   92.1311    4.5961 C.2     1  UNL1        0.2260
     18 O          59.4752   93.2834    3.7671 O.2     1  UNL1       -0.2749
     19 C          57.5675   91.8659    4.9906 C.3     1  UNL1        0.0875
     20 C          57.5409   90.6127    5.8144 C.3     1  UNL1        0.0388
     21 C          58.9471   90.1033    5.9291 C.3     1  UNL1        0.1525
     22 C          61.3301   90.9134    5.0290 C.3     1  UNL1        0.1100
     23 C          61.9398   90.7761    3.6654 C.3     1  UNL1        0.1268
     24 N          63.4697   93.0626    2.4690 N.1     1  UNL1       -0.1958
     25 C          62.7047   91.9193    3.0672 C.1     1  UNL1        0.0750
     26 S          62.1786   89.1643   11.0177 S.O2    1  UNL1        0.0120
     27 O          62.9141   89.2664   10.7277 O.2     1  UNL1       -0.1683
     28 O          60.9331   89.1464   11.8534 O.2     1  UNL1       -0.1683
     29 C          62.9040   89.8864   12.1143 C.ar    1  UNL1        0.1061
     30 C          64.0842   90.7530   11.7887 C.ar    1  UNL1        0.0207
     31 C          64.8096   91.4751   12.8852 C.ar    1  UNL1        0.0310
     32 C          64.3548   91.3305   14.3073 C.ar    1  UNL1        0.1402
     33 F          65.0803   92.0526   15.4039 F       1  UNL1       -0.2042
     34 C          63.1746   90.4639   14.6328 C.ar    1  UNL1        0.0310
     35 C          62.4492   89.7418   13.5363 C.ar    1  UNL1        0.0207
     36 C          63.9506   84.8147   13.9959 C.3     1  UNL1        0.3256
     37 F          64.8685   85.9227   14.4197 F       1  UNL1       -0.2176
     38 C          64.5750   83.9079   15.0146 C.3     1  UNL1        0.4363
     39 F          65.1993   83.0010   16.0334 F       1  UNL1       -0.1666
     40 F          65.9356   84.2453   14.4810 F       1  UNL1       -0.1666
     41 F          63.3006   83.4624   15.6685 F       1  UNL1       -0.1666
     42 C          63.0327   83.7066   13.5721 C.3     1  UNL1        0.4363
     43 F          62.1148   82.5984   13.1483 F       1  UNL1       -0.1666
     44 F          61.7689   84.2937   14.1270 F       1  UNL1       -0.1666
     45 F          63.9368   82.7324   12.8766 F       1  UNL1       -0.1666
@<TRIPOS>BOND
     1    24    25    3
     2    25    23    1
     3    23    22    1
     4    22    16    1
     5    16    17   am
     6    17    18    2
     7    17    19    1
     8    19    20    1
     9    20    21    1
    10    21     1    1
    11     1     2    2
    12     1     3   am
    13     3     4    1
    14     4     5    1
    15     5     6    1
    16     6    26    1
    17    26    27    2
    18    26    28    2
    19    26    29    1
    20    29    30   ar
    21    30    31   ar
    22    31    32   ar
    23    32    33    1
    24    32    34   ar
    25    34    35   ar
    26     6     7    1
    27     7     8   ar
    28     8     9   ar
    29     9    10   ar
    30    10    36    1
    31    36    37    1
    32    36    38    1
    33    38    39    1
    34    38    40    1
    35    38    41    1
    36    36    42    1
    37    42    43    1
    38    42    44    1
    39    42    45    1
    40    10    11   ar
    41    11    12   ar
    42    12    13    1
    43    13    14    1
    44    15    14    1
    45    21    16    1
    46    15     3    1
    47    15     6    1
    48    35    29   ar
    49    12     7   ar
