@<TRIPOS>MOLECULE
*****
 31 34 0 0 0
SMALL
GASTEIGER

@<TRIPOS>ATOM
      1 C          61.1604   87.4633    9.9280 C.ar    1  UNL1        0.0992
      2 C          60.4188   88.6595    9.4094 C.ar    1  UNL1        0.0903
      3 C          60.4574   89.7230   10.4665 C.ar    1  UNL1        0.1263
      4 N          61.2229   89.1841   11.6385 N.ar    1  UNL1       -0.1611
      5 N          61.6574   87.7874   11.3056 N.ar    1  UNL1       -0.1979
      6 C          62.4497   86.8751   12.1944 C.ar    1  UNL1        0.2528
      7 N          63.4993   87.4404   13.1048 N.ar    1  UNL1       -0.2087
      8 C          64.2917   86.5282   13.9935 C.ar    1  UNL1        0.0993
      9 C          64.0344   85.0505   13.9720 C.ar    1  UNL1        0.0156
     10 C          64.8267   84.1383   14.8607 C.3     1  UNL1        0.0343
     11 C          62.9848   84.4852   13.0616 C.ar    1  UNL1        0.0879
     12 N          62.1925   85.3975   12.1728 N.ar    1  UNL1       -0.2097
     13 C          62.7276   83.0076   13.0400 C.ar    1  UNL1        0.0469
     14 C          61.9853   82.2266   14.0836 C.ar    1  UNL1        0.0085
     15 C          61.9664   80.7878   13.6596 C.ar    1  UNL1        0.0075
     16 C          62.6970   80.6797   12.3541 C.ar    1  UNL1        0.0355
     17 S          63.1674   82.0516   11.9711 S.2     1  UNL1       -0.0849
     18 C          59.7550   88.7725    8.0690 C.2     1  UNL1        0.2489
     19 O          58.8957   87.6530    7.5609 O.2     1  UNL1       -0.2700
     20 N          59.9507   90.0050    7.2366 N.am    1  UNL1       -0.2968
     21 H          60.5147   90.7398    7.5701 H       1  UNL1        0.1501
     22 C          59.2869   90.1179    5.8963 C.3     1  UNL1        0.1167
     23 C          59.8624   91.0239    4.8483 C.ar    1  UNL1        0.0005
     24 C          61.3223   90.9495    4.5121 C.ar    1  UNL1        0.0181
     25 C          61.8977   91.8554    3.4642 C.ar    1  UNL1        0.0986
     26 N          61.0132   92.8358    2.7525 N.ar    1  UNL1       -0.2423
     27 C          59.5533   92.9103    3.0888 C.ar    1  UNL1        0.0986
     28 C          58.9779   92.0043    4.1367 C.ar    1  UNL1        0.0181
     29 C          61.3685   86.1700    9.1973 C.3     1  UNL1        0.1879
     30 C          62.7832   84.8847    7.4376 C.3     1  UNL1        0.1747
     31 O          62.6951   85.8712    8.5640 O.3     1  UNL1       -0.3447
@<TRIPOS>BOND
     1    30    31    1
     2    31    29    1
     3    29     1    1
     4     1     2   ar
     5     2    18    1
     6    18    19    2
     7    18    20   am
     8    20    22    1
     9    22    23    1
    10    23    24   ar
    11    24    25   ar
    12    25    26   ar
    13    26    27   ar
    14    27    28   ar
    15     2     3   ar
    16     3     4   ar
    17     4     5   ar
    18     5     6    1
    19     6     7   ar
    20     7     8   ar
    21     8     9   ar
    22     9    10    1
    23     9    11   ar
    24    11    13    1
    25    13    14   ar
    26    14    15   ar
    27    15    16   ar
    28    16    17   ar
    29    11    12   ar
    30     5     1   ar
    31    12     6   ar
    32    28    23   ar
    33    17    13   ar
    34    20    21    1
@<TRIPOS>MOLECULE
*****
 31 34 0 0 0
SMALL
GASTEIGER

@<TRIPOS>ATOM
      1 C          61.7113   88.7257   10.5117 C.ar    1  UNL1        0.0992
      2 C          61.0856   87.5203    9.8750 C.ar    1  UNL1        0.0903
      3 C          61.5486   86.3068   10.6254 C.ar    1  UNL1        0.1263
      4 N          62.4604   86.7622   11.7259 N.ar    1  UNL1       -0.1611
      5 N          62.5610   88.2573   11.6557 N.ar    1  UNL1       -0.1979
      6 C          63.3693   89.1304   12.5690 C.ar    1  UNL1        0.2528
      7 N          63.5819   88.7273   13.9981 N.ar    1  UNL1       -0.2087
      8 C          64.3901   89.6003   14.9114 C.ar    1  UNL1        0.0993
      9 C          64.9859   90.8768   14.3957 C.ar    1  UNL1        0.0156
     10 C          65.7942   91.7500   15.3090 C.3     1  UNL1        0.0343
     11 C          64.7733   91.2800   12.9666 C.ar    1  UNL1        0.0879
     12 N          63.9650   90.4068   12.0533 N.ar    1  UNL1       -0.2097
     13 C          65.3691   92.5563   12.4509 C.ar    1  UNL1        0.0469
     14 C          66.0521   93.6068   13.2755 C.ar    1  UNL1        0.0085
     15 C          66.4915   94.7061   12.3542 C.ar    1  UNL1        0.0075
     16 C          66.0801   94.3349   10.9604 C.ar    1  UNL1        0.0355
     17 S          65.3864   93.0063   11.0201 S.2     1  UNL1       -0.0849
     18 C          60.1596   87.5272    8.6950 C.2     1  UNL1        0.2489
     19 O          59.5904   86.2382    8.1808 O.2     1  UNL1       -0.2700
     20 N          59.8026   88.8232    8.0293 N.am    1  UNL1       -0.2968
     21 H          60.1762   89.6692    8.3668 H       1  UNL1        0.1501
     22 C          58.8766   88.8301    6.8493 C.3     1  UNL1        0.1167
     23 C          58.8255   90.0242    5.9429 C.ar    1  UNL1        0.0005
     24 C          57.5028   90.6180    5.5585 C.ar    1  UNL1        0.0181
     25 C          57.4517   91.8120    4.6522 C.ar    1  UNL1        0.0986
     26 N          58.7234   92.4124    4.1302 N.ar    1  UNL1       -0.2423
     27 C          60.0461   91.8186    4.5146 C.ar    1  UNL1        0.0986
     28 C          60.0972   90.6245    5.4210 C.ar    1  UNL1        0.0181
     29 C          61.5208   90.1497   10.0803 C.3     1  UNL1        0.1879
     30 C          59.3805   90.4534   11.5216 C.3     1  UNL1        0.1747
     31 O          60.2162   90.8436   10.3386 O.3     1  UNL1       -0.3447
@<TRIPOS>BOND
     1    30    31    1
     2    31    29    1
     3    29     1    1
     4     1     2   ar
     5     2    18    1
     6    18    19    2
     7    18    20   am
     8    20    22    1
     9    22    23    1
    10    23    24   ar
    11    24    25   ar
    12    25    26   ar
    13    26    27   ar
    14    27    28   ar
    15     2     3   ar
    16     3     4   ar
    17     4     5   ar
    18     5     6    1
    19     6     7   ar
    20     7     8   ar
    21     8     9   ar
    22     9    10    1
    23     9    11   ar
    24    11    13    1
    25    13    14   ar
    26    14    15   ar
    27    15    16   ar
    28    16    17   ar
    29    11    12   ar
    30     5     1   ar
    31    12     6   ar
    32    28    23   ar
    33    17    13   ar
    34    20    21    1
@<TRIPOS>MOLECULE
*****
 31 34 0 0 0
SMALL
GASTEIGER

@<TRIPOS>ATOM
      1 C          63.2385   89.0174   12.0013 C.ar    1  UNL1        0.0992
      2 C          62.2927   88.3143   11.0734 C.ar    1  UNL1        0.0903
      3 C          61.9461   89.2593    9.9613 C.ar    1  UNL1        0.1263
      4 N          62.6776   90.5465   10.2018 N.ar    1  UNL1       -0.1611
      5 N          63.4764   90.3970   11.4627 N.ar    1  UNL1       -0.1979
      6 C          64.3583   91.4434   12.0770 C.ar    1  UNL1        0.2528
      7 N          64.6601   91.4019   13.5457 N.ar    1  UNL1       -0.2087
      8 C          65.5419   92.4482   14.1601 C.ar    1  UNL1        0.0993
      9 C          66.1221   93.5362   13.3056 C.ar    1  UNL1        0.0156
     10 C          67.0039   94.5825   13.9199 C.3     1  UNL1        0.0343
     11 C          65.8202   93.5777   11.8369 C.ar    1  UNL1        0.0879
     12 N          64.9384   92.5313   11.2226 N.ar    1  UNL1       -0.2097
     13 C          66.4003   94.6655   10.9825 C.ar    1  UNL1        0.0469
     14 C          66.1789   96.1384   11.1597 C.ar    1  UNL1        0.0085
     15 C          66.9454   96.8548   10.0876 C.ar    1  UNL1        0.0075
     16 C          67.6405   95.8245    9.2477 C.ar    1  UNL1        0.0355
     17 S          67.3036   94.4715    9.8008 S.2     1  UNL1       -0.0849
     18 C          61.7830   86.9123   11.2302 C.2     1  UNL1        0.2489
     19 O          60.3494   86.6725   11.6010 O.2     1  UNL1       -0.2700
     20 N          62.7068   85.7500   11.0161 N.am    1  UNL1       -0.2968
     21 H          63.6477   85.9074   10.7727 H       1  UNL1        0.1501
     22 C          62.1971   84.3481   11.1728 C.3     1  UNL1        0.1167
     23 C          62.6643   83.5042   12.3216 C.ar    1  UNL1        0.0005
     24 C          63.5016   82.2862   12.0657 C.ar    1  UNL1        0.0181
     25 C          63.9688   81.4424   13.2144 C.ar    1  UNL1        0.0986
     26 N          63.5987   81.8165   14.6191 N.ar    1  UNL1       -0.2423
     27 C          62.7614   83.0345   14.8750 C.ar    1  UNL1        0.0986
     28 C          62.2943   83.8783   13.7263 C.ar    1  UNL1        0.0181
     29 C          63.8406   88.4421   13.2489 C.3     1  UNL1        0.1879
     30 C          64.4333   86.3780   14.7112 C.3     1  UNL1        0.1747
     31 O          63.7368   86.9708   13.5224 O.3     1  UNL1       -0.3447
@<TRIPOS>BOND
     1    30    31    1
     2    31    29    1
     3    29     1    1
     4     1     2   ar
     5     2    18    1
     6    18    19    2
     7    18    20   am
     8    20    22    1
     9    22    23    1
    10    23    24   ar
    11    24    25   ar
    12    25    26   ar
    13    26    27   ar
    14    27    28   ar
    15     2     3   ar
    16     3     4   ar
    17     4     5   ar
    18     5     6    1
    19     6     7   ar
    20     7     8   ar
    21     8     9   ar
    22     9    10    1
    23     9    11   ar
    24    11    13    1
    25    13    14   ar
    26    14    15   ar
    27    15    16   ar
    28    16    17   ar
    29    11    12   ar
    30     5     1   ar
    31    12     6   ar
    32    28    23   ar
    33    17    13   ar
    34    20    21    1
@<TRIPOS>MOLECULE
*****
 31 34 0 0 0
SMALL
GASTEIGER

@<TRIPOS>ATOM
      1 C          63.7393   88.3265   15.1103 C.ar    1  UNL1        0.0992
      2 C          63.7233   89.4888   16.0583 C.ar    1  UNL1        0.0903
      3 C          63.1649   89.0123   17.3664 C.ar    1  UNL1        0.1263
      4 N          62.8359   87.5555   17.2269 N.ar    1  UNL1       -0.1611
      5 N          63.1909   87.1317   15.8325 N.ar    1  UNL1       -0.1979
      6 C          63.0263   85.7547   15.2607 C.ar    1  UNL1        0.2528
      7 N          62.5611   84.6295   16.1368 N.ar    1  UNL1       -0.2087
      8 C          62.3965   83.2526   15.5651 C.ar    1  UNL1        0.0993
      9 C          62.6972   83.0008   14.1172 C.ar    1  UNL1        0.0156
     10 C          62.5327   81.6239   13.5454 C.3     1  UNL1        0.0343
     11 C          63.1624   84.1260   13.2411 C.ar    1  UNL1        0.0879
     12 N          63.3270   85.5029   13.8129 N.ar    1  UNL1       -0.2097
     13 C          63.4631   83.8742   11.7933 C.ar    1  UNL1        0.0469
     14 C          64.4181   82.8497   11.2564 C.ar    1  UNL1        0.0085
     15 C          64.4068   82.9451    9.7594 C.ar    1  UNL1        0.0075
     16 C          63.4447   84.0285    9.3712 C.ar    1  UNL1        0.0355
     17 S          62.8615   84.6027   10.6283 S.2     1  UNL1       -0.0849
     18 C          64.1846   90.8828   15.7519 C.2     1  UNL1        0.2489
     19 O          63.4595   92.0584   16.3370 O.2     1  UNL1       -0.2700
     20 N          65.3710   91.1013   14.8605 N.am    1  UNL1       -0.2968
     21 H          65.8470   90.3298   14.4765 H       1  UNL1        0.1501
     22 C          65.8323   92.4953   14.5541 C.3     1  UNL1        0.1167
     23 C          65.8192   92.9960   13.1401 C.ar    1  UNL1        0.0005
     24 C          65.2338   92.1484   12.0498 C.ar    1  UNL1        0.0181
     25 C          65.2207   92.6491   10.6359 C.ar    1  UNL1        0.0986
     26 N          65.7930   93.9973   10.3124 N.ar    1  UNL1       -0.2423
     27 C          66.3784   94.8449   11.4027 C.ar    1  UNL1        0.0986
     28 C          66.3915   94.3442   12.8165 C.ar    1  UNL1        0.0181
     29 C          64.2194   88.3541   13.6895 C.3     1  UNL1        0.1879
     30 C          62.4790   89.8717   12.4988 C.3     1  UNL1        0.1747
     31 O          63.2448   88.5841   12.5727 O.3     1  UNL1       -0.3447
@<TRIPOS>BOND
     1    30    31    1
     2    31    29    1
     3    29     1    1
     4     1     2   ar
     5     2    18    1
     6    18    19    2
     7    18    20   am
     8    20    22    1
     9    22    23    1
    10    23    24   ar
    11    24    25   ar
    12    25    26   ar
    13    26    27   ar
    14    27    28   ar
    15     2     3   ar
    16     3     4   ar
    17     4     5   ar
    18     5     6    1
    19     6     7   ar
    20     7     8   ar
    21     8     9   ar
    22     9    10    1
    23     9    11   ar
    24    11    13    1
    25    13    14   ar
    26    14    15   ar
    27    15    16   ar
    28    16    17   ar
    29    11    12   ar
    30     5     1   ar
    31    12     6   ar
    32    28    23   ar
    33    17    13   ar
    34    20    21    1
@<TRIPOS>MOLECULE
*****
 31 34 0 0 0
SMALL
GASTEIGER

@<TRIPOS>ATOM
      1 C          63.7421   86.1943   14.3615 C.ar    1  UNL1        0.0992
      2 C          63.3998   85.1796   15.4118 C.ar    1  UNL1        0.0903
      3 C          63.2636   85.8967   16.7223 C.ar    1  UNL1        0.1263
      4 N          63.5218   87.3546   16.4819 N.ar    1  UNL1       -0.1611
      5 N          63.8175   87.5385   15.0228 N.ar    1  UNL1       -0.1979
      6 C          64.1332   88.8385   14.3442 C.ar    1  UNL1        0.2528
      7 N          63.3400   89.2716   13.1471 N.ar    1  UNL1       -0.2087
      8 C          63.6556   90.5715   12.4685 C.ar    1  UNL1        0.0993
      9 C          64.7646   91.4384   12.9870 C.ar    1  UNL1        0.0156
     10 C          65.0803   92.7383   12.3085 C.3     1  UNL1        0.0343
     11 C          65.5578   91.0053   14.1842 C.ar    1  UNL1        0.0879
     12 N          65.2421   89.7053   14.8628 N.ar    1  UNL1       -0.2097
     13 C          66.6667   91.8721   14.7028 C.ar    1  UNL1        0.0469
     14 C          66.5917   92.7815   15.8933 C.ar    1  UNL1        0.0085
     15 C          67.9240   93.4532   16.0482 C.ar    1  UNL1        0.0075
     16 C          68.8223   92.9589   14.9535 C.ar    1  UNL1        0.0355
     17 S          68.0453   91.9817   14.1219 S.2     1  UNL1       -0.0849
     18 C          63.2244   83.7064   15.1906 C.2     1  UNL1        0.2489
     19 O          64.2573   82.7437   15.6969 O.2     1  UNL1       -0.2700
     20 N          62.0160   83.1959   14.4629 N.am    1  UNL1       -0.2968
     21 H          61.3381   83.8277   14.1306 H       1  UNL1        0.1501
     22 C          61.8407   81.7227   14.2417 C.3     1  UNL1        0.1167
     23 C          62.2665   81.1033   12.9435 C.ar    1  UNL1        0.0005
     24 C          62.7262   81.9743   11.8121 C.ar    1  UNL1        0.0181
     25 C          63.1519   81.3549   10.5140 C.ar    1  UNL1        0.0986
     26 N          63.1180   79.8645   10.3474 N.ar    1  UNL1       -0.2423
     27 C          62.6583   78.9936   11.4788 C.ar    1  UNL1        0.0986
     28 C          62.2325   79.6130   12.7768 C.ar    1  UNL1        0.0181
     29 C          63.9691   85.9140   12.9056 C.3     1  UNL1        0.1879
     30 C          61.9332   86.0777   11.2998 C.3     1  UNL1        0.1747
     31 O          62.8978   85.2478   12.0940 O.3     1  UNL1       -0.3447
@<TRIPOS>BOND
     1    30    31    1
     2    31    29    1
     3    29     1    1
     4     1     2   ar
     5     2    18    1
     6    18    19    2
     7    18    20   am
     8    20    22    1
     9    22    23    1
    10    23    24   ar
    11    24    25   ar
    12    25    26   ar
    13    26    27   ar
    14    27    28   ar
    15     2     3   ar
    16     3     4   ar
    17     4     5   ar
    18     5     6    1
    19     6     7   ar
    20     7     8   ar
    21     8     9   ar
    22     9    10    1
    23     9    11   ar
    24    11    13    1
    25    13    14   ar
    26    14    15   ar
    27    15    16   ar
    28    16    17   ar
    29    11    12   ar
    30     5     1   ar
    31    12     6   ar
    32    28    23   ar
    33    17    13   ar
    34    20    21    1
@<TRIPOS>MOLECULE
*****
 31 34 0 0 0
SMALL
GASTEIGER

@<TRIPOS>ATOM
      1 C          63.7112   88.7044   13.1391 C.ar    1  UNL1        0.0992
      2 C          64.2746   90.0528   13.4774 C.ar    1  UNL1        0.0903
      3 C          64.8040   89.9954   14.8797 C.ar    1  UNL1        0.1263
      4 N          64.5679   88.6115   15.4081 N.ar    1  UNL1       -0.1611
      5 N          63.8925   87.8136   14.3323 N.ar    1  UNL1       -0.1979
      6 C          63.4721   86.3772   14.4322 C.ar    1  UNL1        0.2528
      7 N          62.8859   85.8544   15.7101 N.ar    1  UNL1       -0.2087
      8 C          62.4655   84.4181   15.8101 C.ar    1  UNL1        0.0993
      9 C          62.6314   83.5043   14.6320 C.ar    1  UNL1        0.0156
     10 C          62.2111   82.0679   14.7319 C.3     1  UNL1        0.0343
     11 C          63.2177   84.0271   13.3541 C.ar    1  UNL1        0.0879
     12 N          63.6380   85.4635   13.2542 N.ar    1  UNL1       -0.2097
     13 C          63.3836   83.1134   12.1762 C.ar    1  UNL1        0.0469
     14 C          62.6429   81.8298   11.9448 C.ar    1  UNL1        0.0085
     15 C          63.1208   81.2459   10.6483 C.ar    1  UNL1        0.0075
     16 C          64.1569   82.1688   10.0784 C.ar    1  UNL1        0.0355
     17 S          64.3193   83.3230   11.0227 S.2     1  UNL1       -0.0849
     18 C          64.3034   91.2486   12.5724 C.2     1  UNL1        0.2489
     19 O          63.2007   91.4637   11.5785 O.2     1  UNL1       -0.2700
     20 N          65.4349   92.2293   12.6611 N.am    1  UNL1       -0.2968
     21 H          66.1587   92.0881   13.3135 H       1  UNL1        0.1501
     22 C          65.4638   93.4251   11.7561 C.3     1  UNL1        0.1167
     23 C          66.4348   93.4781   10.6140 C.ar    1  UNL1        0.0005
     24 C          66.4719   94.6791    9.7162 C.ar    1  UNL1        0.0181
     25 C          67.4429   94.7321    8.5741 C.ar    1  UNL1        0.0986
     26 N          68.3769   93.5840    8.3299 N.ar    1  UNL1       -0.2423
     27 C          68.3398   92.3830    9.2278 C.ar    1  UNL1        0.0986
     28 C          67.3688   92.3300   10.3698 C.ar    1  UNL1        0.0181
     29 C          63.0777   88.3151   11.8364 C.3     1  UNL1        0.1879
     30 C          60.9660   87.1525   10.8675 C.3     1  UNL1        0.1747
     31 O          61.5850   88.2128   11.7291 O.3     1  UNL1       -0.3447
@<TRIPOS>BOND
     1    30    31    1
     2    31    29    1
     3    29     1    1
     4     1     2   ar
     5     2    18    1
     6    18    19    2
     7    18    20   am
     8    20    22    1
     9    22    23    1
    10    23    24   ar
    11    24    25   ar
    12    25    26   ar
    13    26    27   ar
    14    27    28   ar
    15     2     3   ar
    16     3     4   ar
    17     4     5   ar
    18     5     6    1
    19     6     7   ar
    20     7     8   ar
    21     8     9   ar
    22     9    10    1
    23     9    11   ar
    24    11    13    1
    25    13    14   ar
    26    14    15   ar
    27    15    16   ar
    28    16    17   ar
    29    11    12   ar
    30     5     1   ar
    31    12     6   ar
    32    28    23   ar
    33    17    13   ar
    34    20    21    1
@<TRIPOS>MOLECULE
*****
 31 34 0 0 0
SMALL
GASTEIGER

@<TRIPOS>ATOM
      1 C          63.7090   88.2529   13.3667 C.ar    1  UNL1        0.0992
      2 C          63.4863   89.4545   12.4969 C.ar    1  UNL1        0.0903
      3 C          62.6952   89.0194   11.2990 C.ar    1  UNL1        0.1263
      4 N          62.4289   87.5489   11.4285 N.ar    1  UNL1       -0.1611
      5 N          63.0555   87.0752   12.7064 N.ar    1  UNL1       -0.1979
      6 C          63.0326   85.6704   13.2318 C.ar    1  UNL1        0.2528
      7 N          62.9844   85.4233   14.7105 N.ar    1  UNL1       -0.2087
      8 C          62.9615   84.0186   15.2359 C.ar    1  UNL1        0.0993
      9 C          62.9867   82.8607   14.2825 C.ar    1  UNL1        0.0156
     10 C          62.9638   81.4560   14.8078 C.3     1  UNL1        0.0343
     11 C          63.0348   83.1078   12.8038 C.ar    1  UNL1        0.0879
     12 N          63.0578   84.5126   12.2784 N.ar    1  UNL1       -0.2097
     13 C          63.0600   81.9500   11.8504 C.ar    1  UNL1        0.0469
     14 C          62.6139   80.5500   12.1517 C.ar    1  UNL1        0.0085
     15 C          62.8139   79.7236   10.9159 C.ar    1  UNL1        0.0075
     16 C          63.3837   80.6130    9.8508 C.ar    1  UNL1        0.0355
     17 S          63.5357   81.9890   10.4284 S.2     1  UNL1       -0.0849
     18 C          63.9699   90.8467   12.7760 C.2     1  UNL1        0.2489
     19 O          63.5866   91.5316   14.0542 O.2     1  UNL1       -0.2700
     20 N          64.8367   91.5540   11.7768 N.am    1  UNL1       -0.2968
     21 H          65.0883   91.1044   10.9378 H       1  UNL1        0.1501
     22 C          65.3203   92.9462   12.0559 C.3     1  UNL1        0.1167
     23 C          66.1747   93.6591   11.0500 C.ar    1  UNL1        0.0005
     24 C          66.0821   95.1496   10.9093 C.ar    1  UNL1        0.0181
     25 C          66.9366   95.8625    9.9035 C.ar    1  UNL1        0.0986
     26 N          67.8836   95.0849    9.0384 N.ar    1  UNL1       -0.2423
     27 C          67.9762   93.5944    9.1791 C.ar    1  UNL1        0.0986
     28 C          67.1218   92.8815   10.1849 C.ar    1  UNL1        0.0181
     29 C          64.4542   88.2325   14.6683 C.3     1  UNL1        0.1879
     30 C          63.0840   89.3849   16.5509 C.3     1  UNL1        0.1747
     31 O          63.7009   88.1506   15.9628 O.3     1  UNL1       -0.3447
@<TRIPOS>BOND
     1    30    31    1
     2    31    29    1
     3    29     1    1
     4     1     2   ar
     5     2    18    1
     6    18    19    2
     7    18    20   am
     8    20    22    1
     9    22    23    1
    10    23    24   ar
    11    24    25   ar
    12    25    26   ar
    13    26    27   ar
    14    27    28   ar
    15     2     3   ar
    16     3     4   ar
    17     4     5   ar
    18     5     6    1
    19     6     7   ar
    20     7     8   ar
    21     8     9   ar
    22     9    10    1
    23     9    11   ar
    24    11    13    1
    25    13    14   ar
    26    14    15   ar
    27    15    16   ar
    28    16    17   ar
    29    11    12   ar
    30     5     1   ar
    31    12     6   ar
    32    28    23   ar
    33    17    13   ar
    34    20    21    1
@<TRIPOS>MOLECULE
*****
 31 34 0 0 0
SMALL
GASTEIGER

@<TRIPOS>ATOM
      1 C          59.8695   91.0184    5.0737 C.ar    1  UNL1        0.0992
      2 C          58.9868   91.9292    4.2730 C.ar    1  UNL1        0.0903
      3 C          57.5697   91.7030    4.7097 C.ar    1  UNL1        0.1263
      4 N          57.5765   90.6525    5.7803 N.ar    1  UNL1       -0.1611
      5 N          58.9980   90.2293    6.0053 N.ar    1  UNL1       -0.1979
      6 C          59.4657   89.1981    6.9891 C.ar    1  UNL1        0.2528
      7 N          59.1980   87.7441    6.7360 N.ar    1  UNL1       -0.2087
      8 C          59.6656   86.7129    7.7197 C.ar    1  UNL1        0.0993
      9 C          60.4012   87.1358    8.9568 C.ar    1  UNL1        0.0156
     10 C          60.8689   86.1047    9.9406 C.3     1  UNL1        0.0343
     11 C          60.6689   88.5898    9.2100 C.ar    1  UNL1        0.0879
     12 N          60.2012   89.6210    8.2262 N.ar    1  UNL1       -0.2097
     13 C          61.4044   89.0126   10.4470 C.ar    1  UNL1        0.0469
     14 C          62.7238   88.4745   10.9155 C.ar    1  UNL1        0.0085
     15 C          63.0845   89.1772   12.1909 C.ar    1  UNL1        0.0075
     16 C          61.9880   90.1495   12.5105 C.ar    1  UNL1        0.0355
     17 S          60.9496   90.0478   11.4327 S.2     1  UNL1       -0.0849
     18 C          59.4413   92.8963    3.2204 C.2     1  UNL1        0.2489
     19 O          59.8851   94.2751    3.6101 O.2     1  UNL1       -0.2700
     20 N          59.4521   92.4846    1.7780 N.am    1  UNL1       -0.2968
     21 H          59.1608   91.5796    1.5222 H       1  UNL1        0.1501
     22 C          59.9067   93.4517    0.7254 C.3     1  UNL1        0.1167
     23 C          61.3590   93.5338    0.3592 C.ar    1  UNL1        0.0005
     24 C          62.3789   93.8684    1.4069 C.ar    1  UNL1        0.0181
     25 C          63.8312   93.9505    1.0407 C.ar    1  UNL1        0.0986
     26 N          64.2635   93.6979   -0.3733 N.ar    1  UNL1       -0.2423
     27 C          63.2436   93.3633   -1.4210 C.ar    1  UNL1        0.0986
     28 C          61.7914   93.2812   -1.0548 C.ar    1  UNL1        0.0181
     29 C          61.3618   90.9147    4.9624 C.3     1  UNL1        0.1879
     30 C          63.3125   90.8650    3.2472 C.3     1  UNL1        0.1747
     31 O          62.0692   91.5115    3.7820 O.3     1  UNL1       -0.3447
@<TRIPOS>BOND
     1    30    31    1
     2    31    29    1
     3    29     1    1
     4     1     2   ar
     5     2    18    1
     6    18    19    2
     7    18    20   am
     8    20    22    1
     9    22    23    1
    10    23    24   ar
    11    24    25   ar
    12    25    26   ar
    13    26    27   ar
    14    27    28   ar
    15     2     3   ar
    16     3     4   ar
    17     4     5   ar
    18     5     6    1
    19     6     7   ar
    20     7     8   ar
    21     8     9   ar
    22     9    10    1
    23     9    11   ar
    24    11    13    1
    25    13    14   ar
    26    14    15   ar
    27    15    16   ar
    28    16    17   ar
    29    11    12   ar
    30     5     1   ar
    31    12     6   ar
    32    28    23   ar
    33    17    13   ar
    34    20    21    1
@<TRIPOS>MOLECULE
*****
 31 34 0 0 0
SMALL
GASTEIGER

@<TRIPOS>ATOM
      1 C          59.8935   90.9797    5.0342 C.ar    1  UNL1        0.0992
      2 C          59.0200   91.8810    4.2129 C.ar    1  UNL1        0.0903
      3 C          57.6038   91.6984    4.6721 C.ar    1  UNL1        0.1263
      4 N          57.6020   90.6842    5.7773 N.ar    1  UNL1       -0.1611
      5 N          59.0172   90.2400    6.0011 N.ar    1  UNL1       -0.1979
      6 C          59.4755   89.2330    7.0139 C.ar    1  UNL1        0.2528
      7 N          59.2092   87.7733    6.7939 N.ar    1  UNL1       -0.2087
      8 C          59.6674   86.7663    7.8066 C.ar    1  UNL1        0.0993
      9 C          60.3921   87.2189    9.0396 C.ar    1  UNL1        0.0156
     10 C          60.8504   86.2119   10.0524 C.3     1  UNL1        0.0343
     11 C          60.6584   88.6785    9.2597 C.ar    1  UNL1        0.0879
     12 N          60.2001   89.6856    8.2468 N.ar    1  UNL1       -0.2097
     13 C          61.3830   89.1312   10.4926 C.ar    1  UNL1        0.0469
     14 C          62.8605   89.0340   10.7325 C.ar    1  UNL1        0.0085
     15 C          63.1480   89.6032   12.0903 C.ar    1  UNL1        0.0075
     16 C          61.8482   90.0522   12.6894 C.ar    1  UNL1        0.0355
     17 S          60.7574   89.7604   11.7019 S.2     1  UNL1       -0.0849
     18 C          59.4817   92.8031    3.1236 C.2     1  UNL1        0.2489
     19 O          59.9363   94.1925    3.4596 O.2     1  UNL1       -0.2700
     20 N          59.4889   92.3357    1.6982 N.am    1  UNL1       -0.2968
     21 H          59.1905   91.4238    1.4777 H       1  UNL1        0.1501
     22 C          59.9505   93.2578    0.6089 C.3     1  UNL1        0.1167
     23 C          59.2300   93.2847   -0.7065 C.ar    1  UNL1        0.0005
     24 C          59.9988   93.4848   -1.9788 C.ar    1  UNL1        0.0181
     25 C          59.2783   93.5117   -3.2941 C.ar    1  UNL1        0.0986
     26 N          57.7889   93.3386   -3.3370 N.ar    1  UNL1       -0.2423
     27 C          57.0201   93.1386   -2.0647 C.ar    1  UNL1        0.0986
     28 C          57.7406   93.1117   -0.7494 C.ar    1  UNL1        0.0181
     29 C          61.3821   90.8422    4.9105 C.3     1  UNL1        0.1879
     30 C          63.2751   90.9378    3.1336 C.3     1  UNL1        0.1747
     31 O          62.1170   91.5846    3.8340 O.3     1  UNL1       -0.3447
@<TRIPOS>BOND
     1    30    31    1
     2    31    29    1
     3    29     1    1
     4     1     2   ar
     5     2    18    1
     6    18    19    2
     7    18    20   am
     8    20    22    1
     9    22    23    1
    10    23    24   ar
    11    24    25   ar
    12    25    26   ar
    13    26    27   ar
    14    27    28   ar
    15     2     3   ar
    16     3     4   ar
    17     4     5   ar
    18     5     6    1
    19     6     7   ar
    20     7     8   ar
    21     8     9   ar
    22     9    10    1
    23     9    11   ar
    24    11    13    1
    25    13    14   ar
    26    14    15   ar
    27    15    16   ar
    28    16    17   ar
    29    11    12   ar
    30     5     1   ar
    31    12     6   ar
    32    28    23   ar
    33    17    13   ar
    34    20    21    1
