@<TRIPOS>MOLECULE
*****
 20 23 0 0 0
SMALL
GASTEIGER

@<TRIPOS>ATOM
      1 C          64.5165   89.8879   14.4193 C.ar    1  UNL1        0.0964
      2 N          65.4852   90.9341   14.8852 N.ar    1  UNL1       -0.2268
      3 C          65.6456   91.9405   13.7845 C.ar    1  UNL1        0.1476
      4 C          66.4711   93.1883   13.6779 C.ar    1  UNL1        0.0397
      5 C          66.4270   94.0119   12.4251 C.ar    1  UNL1        0.0343
      6 C          65.5573   93.5878   11.2789 C.ar    1  UNL1        0.1577
      7 F          65.5132   94.4115   10.0260 F       1  UNL1       -0.2026
      8 C          64.7318   92.3399   11.3855 C.ar    1  UNL1        0.1110
      9 N          64.7759   91.5163   12.6383 N.ar    1  UNL1       -0.2906
     10 C          64.0782   90.2478   13.0306 C.ar    1  UNL1        0.0601
     11 F          64.4301   84.7408   15.1266 F       1  UNL1       -0.2025
     12 C          64.0222   86.1184   15.5579 C.ar    1  UNL1        0.1593
     13 C          63.1631   86.2999   16.7740 C.ar    1  UNL1        0.1284
     14 N          62.7552   87.6775   17.2052 N.ar    1  UNL1       -0.2399
     15 C          63.2063   88.8734   16.4203 C.ar    1  UNL1        0.1005
     16 C          64.0654   88.6919   15.2042 C.ar    1  UNL1        0.0402
     17 C          64.4733   87.3144   14.7730 C.ar    1  UNL1        0.0343
     18 C          63.1117   89.4748   12.1830 C.3     1  UNL1        0.0402
     19 C          61.8594   89.4235   11.3588 C.3     1  UNL1        0.0063
     20 C          62.6898   88.1874   11.5392 C.3     1  UNL1        0.0063
@<TRIPOS>BOND
     1    11    12    1
     2    12    13   ar
     3    13    14   ar
     4    14    15   ar
     5    15    16   ar
     6    16     1    1
     7     1     2   ar
     8     2     3   ar
     9     3     4   ar
    10     4     5   ar
    11     5     6   ar
    12     6     7    1
    13     6     8   ar
    14     8     9   ar
    15     9    10   ar
    16    10    18    1
    17    18    19    1
    18    19    20    1
    19    16    17   ar
    20    17    12   ar
    21    10     1   ar
    22    20    18    1
    23     9     3   ar
@<TRIPOS>MOLECULE
*****
 20 23 0 0 0
SMALL
GASTEIGER

@<TRIPOS>ATOM
      1 C          63.2674   85.2902   13.0341 C.ar    1  UNL1        0.0964
      2 N          63.9029   85.9636   14.2142 N.ar    1  UNL1       -0.2268
      3 C          63.9255   87.4398   13.9489 C.ar    1  UNL1        0.1476
      4 C          64.4318   88.5973   14.7575 C.ar    1  UNL1        0.0397
      5 C          64.3164   89.9937   14.2221 C.ar    1  UNL1        0.0343
      6 C          63.6949   90.2326   12.8780 C.ar    1  UNL1        0.1577
      7 F          63.5796   91.6291   12.3426 F       1  UNL1       -0.2026
      8 C          63.1886   89.0751   12.0694 C.ar    1  UNL1        0.1110
      9 N          63.3039   87.6788   12.6048 N.ar    1  UNL1       -0.2906
     10 C          62.8972   86.3502   12.0395 C.ar    1  UNL1        0.0601
     11 F          63.3426   81.0170   10.0787 F       1  UNL1       -0.2025
     12 C          63.0793   81.6791   11.3987 C.ar    1  UNL1        0.1593
     13 C          62.5902   80.8667   12.5609 C.ar    1  UNL1        0.1284
     14 N          62.3269   81.5288   13.8809 N.ar    1  UNL1       -0.2399
     15 C          62.5526   83.0033   14.0386 C.ar    1  UNL1        0.1005
     16 C          63.0417   83.8157   12.8764 C.ar    1  UNL1        0.0402
     17 C          63.3050   83.1536   11.5565 C.ar    1  UNL1        0.0343
     18 C          62.2363   86.1218   10.7124 C.3     1  UNL1        0.0402
     19 C          61.0004   86.1052    9.8624 C.3     1  UNL1        0.0063
     20 C          62.3273   85.7430    9.2640 C.3     1  UNL1        0.0063
@<TRIPOS>BOND
     1    11    12    1
     2    12    13   ar
     3    13    14   ar
     4    14    15   ar
     5    15    16   ar
     6    16     1    1
     7     1     2   ar
     8     2     3   ar
     9     3     4   ar
    10     4     5   ar
    11     5     6   ar
    12     6     7    1
    13     6     8   ar
    14     8     9   ar
    15     9    10   ar
    16    10    18    1
    17    18    19    1
    18    19    20    1
    19    16    17   ar
    20    17    12   ar
    21    10     1   ar
    22    20    18    1
    23     9     3   ar
@<TRIPOS>MOLECULE
*****
 20 23 0 0 0
SMALL
GASTEIGER

@<TRIPOS>ATOM
      1 C          62.5898   84.7383   12.1887 C.ar    1  UNL1        0.0964
      2 N          61.9230   85.2534   10.9477 N.ar    1  UNL1       -0.2268
      3 C          62.1297   86.7380   10.8925 C.ar    1  UNL1        0.1476
      4 C          61.6971   87.7754    9.8992 C.ar    1  UNL1        0.0397
      5 C          62.0591   89.2152   10.1127 C.ar    1  UNL1        0.0343
      6 C          62.8538   89.6178   11.3196 C.ar    1  UNL1        0.1577
      7 F          63.2158   91.0577   11.5331 F       1  UNL1       -0.2026
      8 C          63.2864   88.5804   12.3129 C.ar    1  UNL1        0.1110
      9 N          62.9244   87.1406   12.0994 N.ar    1  UNL1       -0.2906
     10 C          63.2087   85.9047   12.9004 C.ar    1  UNL1        0.0601
     11 F          62.8907   79.6739   11.0655 F       1  UNL1       -0.2025
     12 C          62.7810   80.7759   12.0774 C.ar    1  UNL1        0.1593
     13 C          62.7121   80.4475   13.5393 C.ar    1  UNL1        0.1284
     14 N          62.6024   81.5494   14.5511 N.ar    1  UNL1       -0.2399
     15 C          62.5616   82.9797   14.1009 C.ar    1  UNL1        0.1005
     16 C          62.6306   83.3080   12.6389 C.ar    1  UNL1        0.0402
     17 C          62.7402   82.2061   11.6272 C.ar    1  UNL1        0.0343
     18 C          63.9771   85.8455   14.1874 C.3     1  UNL1        0.0402
     19 C          65.2583   85.5911   14.9249 C.3     1  UNL1        0.0063
     20 C          64.0268   85.9975   15.6788 C.3     1  UNL1        0.0063
@<TRIPOS>BOND
     1    11    12    1
     2    12    13   ar
     3    13    14   ar
     4    14    15   ar
     5    15    16   ar
     6    16     1    1
     7     1     2   ar
     8     2     3   ar
     9     3     4   ar
    10     4     5   ar
    11     5     6   ar
    12     6     7    1
    13     6     8   ar
    14     8     9   ar
    15     9    10   ar
    16    10    18    1
    17    18    19    1
    18    19    20    1
    19    16    17   ar
    20    17    12   ar
    21    10     1   ar
    22    20    18    1
    23     9     3   ar
@<TRIPOS>MOLECULE
*****
 20 23 0 0 0
SMALL
GASTEIGER

@<TRIPOS>ATOM
      1 C          63.5272   90.2928   12.3781 C.ar    1  UNL1        0.0964
      2 N          64.0141   91.5748   11.7704 N.ar    1  UNL1       -0.2268
      3 C          65.0613   92.1496   12.6776 C.ar    1  UNL1        0.1476
      4 C          65.8896   93.3971   12.5907 C.ar    1  UNL1        0.0397
      5 C          66.8782   93.7178   13.6722 C.ar    1  UNL1        0.0343
      6 C          67.0385   92.7910   14.8407 C.ar    1  UNL1        0.1577
      7 F          68.0271   93.1118   15.9223 F       1  UNL1       -0.2026
      8 C          66.2102   91.5435   14.9276 C.ar    1  UNL1        0.1110
      9 N          65.2216   91.2228   13.8461 N.ar    1  UNL1       -0.2906
     10 C          64.2735   90.0752   13.6610 C.ar    1  UNL1        0.0601
     11 F          62.0708   85.6037   10.6778 F       1  UNL1       -0.2025
     12 C          61.7500   87.0428   10.9537 C.ar    1  UNL1        0.1593
     13 C          60.3803   87.5764   10.6554 C.ar    1  UNL1        0.1284
     14 N          60.0595   89.0155   10.9312 N.ar    1  UNL1       -0.2399
     15 C          61.1085   89.9210   11.5055 C.ar    1  UNL1        0.1005
     16 C          62.4782   89.3874   11.8039 C.ar    1  UNL1        0.0402
     17 C          62.7990   87.9483   11.5280 C.ar    1  UNL1        0.0343
     18 C          64.1019   88.9140   14.5948 C.3     1  UNL1        0.0402
     19 C          64.3241   87.4673   14.9234 C.3     1  UNL1        0.0063
     20 C          63.5824   88.3492   15.8837 C.3     1  UNL1        0.0063
@<TRIPOS>BOND
     1    11    12    1
     2    12    13   ar
     3    13    14   ar
     4    14    15   ar
     5    15    16   ar
     6    16     1    1
     7     1     2   ar
     8     2     3   ar
     9     3     4   ar
    10     4     5   ar
    11     5     6   ar
    12     6     7    1
    13     6     8   ar
    14     8     9   ar
    15     9    10   ar
    16    10    18    1
    17    18    19    1
    18    19    20    1
    19    16    17   ar
    20    17    12   ar
    21    10     1   ar
    22    20    18    1
    23     9     3   ar
@<TRIPOS>MOLECULE
*****
 20 23 0 0 0
SMALL
GASTEIGER

@<TRIPOS>ATOM
      1 C          64.8682   91.3672   13.3306 C.ar    1  UNL1        0.0964
      2 N          64.6648   91.7606   11.8975 N.ar    1  UNL1       -0.2268
      3 C          63.4554   91.0362   11.3850 C.ar    1  UNL1        0.1476
      4 C          62.7793   91.0338   10.0461 C.ar    1  UNL1        0.0397
      5 C          61.5591   90.1903    9.8236 C.ar    1  UNL1        0.0343
      6 C          61.0150   89.3491   10.9400 C.ar    1  UNL1        0.1577
      7 F          59.7948   88.5056   10.7175 F       1  UNL1       -0.2026
      8 C          61.6912   89.3515   12.2790 C.ar    1  UNL1        0.1110
      9 N          62.9113   90.1950   12.5015 N.ar    1  UNL1       -0.2906
     10 C          63.7845   90.3996   13.7039 C.ar    1  UNL1        0.0601
     11 F          69.9032   92.3278   14.1827 F       1  UNL1       -0.2025
     12 C          68.4806   92.3359   14.6582 C.ar    1  UNL1        0.1593
     13 C          68.1528   92.8324   16.0351 C.ar    1  UNL1        0.1284
     14 N          66.7302   92.8404   16.5106 N.ar    1  UNL1       -0.2399
     15 C          65.6354   92.3520   15.6091 C.ar    1  UNL1        0.1005
     16 C          65.9631   91.8556   14.2321 C.ar    1  UNL1        0.0402
     17 C          67.3857   91.8475   13.7567 C.ar    1  UNL1        0.0343
     18 C          63.6054   89.7505   15.0442 C.3     1  UNL1        0.0402
     19 C          63.6505   88.5277   15.9119 C.3     1  UNL1        0.0063
     20 C          63.2501   89.8490   16.4982 C.3     1  UNL1        0.0063
@<TRIPOS>BOND
     1    11    12    1
     2    12    13   ar
     3    13    14   ar
     4    14    15   ar
     5    15    16   ar
     6    16     1    1
     7     1     2   ar
     8     2     3   ar
     9     3     4   ar
    10     4     5   ar
    11     5     6   ar
    12     6     7    1
    13     6     8   ar
    14     8     9   ar
    15     9    10   ar
    16    10    18    1
    17    18    19    1
    18    19    20    1
    19    16    17   ar
    20    17    12   ar
    21    10     1   ar
    22    20    18    1
    23     9     3   ar
@<TRIPOS>MOLECULE
*****
 20 23 0 0 0
SMALL
GASTEIGER

@<TRIPOS>ATOM
      1 C          65.6416   92.2432   12.1202 C.ar    1  UNL1        0.0964
      2 N          64.3601   91.5232   11.8209 N.ar    1  UNL1       -0.2268
      3 C          63.8817   90.8814   13.0894 C.ar    1  UNL1        0.1476
      4 C          62.6758   90.0444   13.3980 C.ar    1  UNL1        0.0397
      5 C          62.4557   89.5308   14.7900 C.ar    1  UNL1        0.0343
      6 C          63.4415   89.8541   15.8734 C.ar    1  UNL1        0.1577
      7 F          63.2213   89.3403   17.2654 F       1  UNL1       -0.2026
      8 C          64.6473   90.6911   15.5648 C.ar    1  UNL1        0.1110
      9 N          64.8675   91.2048   14.1728 N.ar    1  UNL1       -0.2906
     10 C          65.9551   92.0463   13.5738 C.ar    1  UNL1        0.0601
     11 F          69.0715   92.3657    8.2188 F       1  UNL1       -0.2025
     12 C          68.1798   93.0843    9.1877 C.ar    1  UNL1        0.1593
     13 C          68.1115   94.5827    9.1747 C.ar    1  UNL1        0.1284
     14 N          67.2199   95.3012   10.1435 N.ar    1  UNL1       -0.2399
     15 C          66.3966   94.5213   11.1254 C.ar    1  UNL1        0.1005
     16 C          66.4649   93.0230   11.1384 C.ar    1  UNL1        0.0402
     17 C          67.3565   92.3045   10.1695 C.ar    1  UNL1        0.0343
     18 C          67.1470   92.5948   14.3008 C.3     1  UNL1        0.0402
     19 C          68.6138   92.5483   14.6113 C.3     1  UNL1        0.0063
     20 C          67.7448   93.5912   15.2494 C.3     1  UNL1        0.0063
@<TRIPOS>BOND
     1    11    12    1
     2    12    13   ar
     3    13    14   ar
     4    14    15   ar
     5    15    16   ar
     6    16     1    1
     7     1     2   ar
     8     2     3   ar
     9     3     4   ar
    10     4     5   ar
    11     5     6   ar
    12     6     7    1
    13     6     8   ar
    14     8     9   ar
    15     9    10   ar
    16    10    18    1
    17    18    19    1
    18    19    20    1
    19    16    17   ar
    20    17    12   ar
    21    10     1   ar
    22    20    18    1
    23     9     3   ar
@<TRIPOS>MOLECULE
*****
 20 23 0 0 0
SMALL
GASTEIGER

@<TRIPOS>ATOM
      1 C          62.7928   86.2494   12.1152 C.ar    1  UNL1        0.0964
      2 N          62.9453   85.6007   13.4590 N.ar    1  UNL1       -0.2268
      3 C          62.9352   84.1140   13.2600 C.ar    1  UNL1        0.1476
      4 C          63.0501   82.9714   14.2250 C.ar    1  UNL1        0.0397
      5 C          63.0062   81.5586   13.7230 C.ar    1  UNL1        0.0343
      6 C          62.8474   81.2884   12.2561 C.ar    1  UNL1        0.1577
      7 F          62.8035   79.8755   11.7542 F       1  UNL1       -0.2026
      8 C          62.7326   82.4310   11.2912 C.ar    1  UNL1        0.1110
      9 N          62.7765   83.8438   11.7931 N.ar    1  UNL1       -0.2906
     10 C          62.6884   85.1635   11.0856 C.ar    1  UNL1        0.0601
     11 F          64.2759   91.0828   13.3144 F       1  UNL1       -0.2025
     12 C          63.4933   90.1415   12.4474 C.ar    1  UNL1        0.1593
     13 C          62.6698   90.6756   11.3132 C.ar    1  UNL1        0.1284
     14 N          61.8873   89.7343   10.4463 N.ar    1  UNL1       -0.2399
     15 C          61.9283   88.2589   10.7136 C.ar    1  UNL1        0.1005
     16 C          62.7518   87.7248   11.8478 C.ar    1  UNL1        0.0402
     17 C          63.5343   88.6661   12.7148 C.ar    1  UNL1        0.0343
     18 C          62.5247   85.3624    9.6079 C.3     1  UNL1        0.0402
     19 C          61.6695   85.7403    8.4348 C.3     1  UNL1        0.0063
     20 C          63.0963   85.3292    8.2215 C.3     1  UNL1        0.0063
@<TRIPOS>BOND
     1    11    12    1
     2    12    13   ar
     3    13    14   ar
     4    14    15   ar
     5    15    16   ar
     6    16     1    1
     7     1     2   ar
     8     2     3   ar
     9     3     4   ar
    10     4     5   ar
    11     5     6   ar
    12     6     7    1
    13     6     8   ar
    14     8     9   ar
    15     9    10   ar
    16    10    18    1
    17    18    19    1
    18    19    20    1
    19    16    17   ar
    20    17    12   ar
    21    10     1   ar
    22    20    18    1
    23     9     3   ar
@<TRIPOS>MOLECULE
*****
 20 23 0 0 0
SMALL
GASTEIGER

@<TRIPOS>ATOM
      1 C          63.5069   90.1962   12.7119 C.ar    1  UNL1        0.0964
      2 N          62.7617   90.8000   11.5586 N.ar    1  UNL1       -0.2268
      3 C          62.0965   89.6878   10.8032 C.ar    1  UNL1        0.1476
      4 C          61.2297   89.6840    9.5790 C.ar    1  UNL1        0.0397
      5 C          60.6971   88.3890    9.0412 C.ar    1  UNL1        0.0343
      6 C          61.0312   87.0978    9.7277 C.ar    1  UNL1        0.1577
      7 F          60.4985   85.8028    9.1899 F       1  UNL1       -0.2026
      8 C          61.8979   87.1016   10.9519 C.ar    1  UNL1        0.1110
      9 N          62.4306   88.3966   11.4896 N.ar    1  UNL1       -0.2906
     10 C          63.3022   88.7109   12.6692 C.ar    1  UNL1        0.0601
     11 F          67.7373   92.9415   13.9635 F       1  UNL1       -0.2025
     12 C          66.4300   92.3187   14.3550 C.ar    1  UNL1        0.1593
     13 C          65.9307   92.4459   15.7637 C.ar    1  UNL1        0.1284
     14 N          64.6235   91.8231   16.1551 N.ar    1  UNL1       -0.2399
     15 C          63.8155   91.0732   15.1379 C.ar    1  UNL1        0.1005
     16 C          64.3148   90.9461   13.7292 C.ar    1  UNL1        0.0402
     17 C          65.6221   91.5688   13.3377 C.ar    1  UNL1        0.0343
     18 C          63.8696   87.7146   13.6365 C.3     1  UNL1        0.0402
     19 C          64.5785   87.4117   14.9233 C.3     1  UNL1        0.0063
     20 C          64.1436   86.2919   14.0250 C.3     1  UNL1        0.0063
@<TRIPOS>BOND
     1    11    12    1
     2    12    13   ar
     3    13    14   ar
     4    14    15   ar
     5    15    16   ar
     6    16     1    1
     7     1     2   ar
     8     2     3   ar
     9     3     4   ar
    10     4     5   ar
    11     5     6   ar
    12     6     7    1
    13     6     8   ar
    14     8     9   ar
    15     9    10   ar
    16    10    18    1
    17    18    19    1
    18    19    20    1
    19    16    17   ar
    20    17    12   ar
    21    10     1   ar
    22    20    18    1
    23     9     3   ar
@<TRIPOS>MOLECULE
*****
 20 23 0 0 0
SMALL
GASTEIGER

@<TRIPOS>ATOM
      1 C          62.7543   85.2248   11.8755 C.ar    1  UNL1        0.0964
      2 N          62.1521   85.9776   10.7263 N.ar    1  UNL1       -0.2268
      3 C          62.3710   87.4421   10.9659 C.ar    1  UNL1        0.1476
      4 C          61.9941   88.6566   10.1703 C.ar    1  UNL1        0.0397
      5 C          62.3547   90.0234   10.6721 C.ar    1  UNL1        0.0343
      6 C          63.0922   90.1757   11.9693 C.ar    1  UNL1        0.1577
      7 F          63.4528   91.5426   12.4710 F       1  UNL1       -0.2026
      8 C          63.4691   88.9612   12.7648 C.ar    1  UNL1        0.1110
      9 N          63.1085   87.5944   12.2631 N.ar    1  UNL1       -0.2906
     10 C          63.3454   86.2241   12.8253 C.ar    1  UNL1        0.0601
     11 F          61.5613   81.0055   14.6637 F       1  UNL1       -0.2025
     12 C          62.1673   81.6248   13.4392 C.ar    1  UNL1        0.1593
     13 C          62.7826   80.7538   12.3844 C.ar    1  UNL1        0.1284
     14 N          63.3885   81.3731   11.1600 N.ar    1  UNL1       -0.2399
     15 C          63.3791   82.8635   10.9904 C.ar    1  UNL1        0.1005
     16 C          62.7638   83.7345   12.0451 C.ar    1  UNL1        0.0402
     17 C          62.1578   83.1151   13.2696 C.ar    1  UNL1        0.0343
     18 C          64.0497   85.9084   14.1115 C.3     1  UNL1        0.0402
     19 C          64.1543   86.0418   15.6020 C.3     1  UNL1        0.0063
     20 C          65.1650   85.2284   14.8489 C.3     1  UNL1        0.0063
@<TRIPOS>BOND
     1    11    12    1
     2    12    13   ar
     3    13    14   ar
     4    14    15   ar
     5    15    16   ar
     6    16     1    1
     7     1     2   ar
     8     2     3   ar
     9     3     4   ar
    10     4     5   ar
    11     5     6   ar
    12     6     7    1
    13     6     8   ar
    14     8     9   ar
    15     9    10   ar
    16    10    18    1
    17    18    19    1
    18    19    20    1
    19    16    17   ar
    20    17    12   ar
    21    10     1   ar
    22    20    18    1
    23     9     3   ar
