@<TRIPOS>MOLECULE
*****
 22 24 0 0 0
SMALL
GASTEIGER

@<TRIPOS>ATOM
      1 C          62.8868   89.4473   11.5967 C.ar    1  UNL1        0.1819
      2 N          63.5950   90.6864   11.1349 N.ar    1  UNL1       -0.2172
      3 C          64.4134   91.4875   12.1035 C.ar    1  UNL1        0.1744
      4 C          65.1216   92.7266   11.6417 C.ar    1  UNL1        0.2851
      5 O          65.0113   93.1645   10.2113 O.2     1  UNL1       -0.2651
      6 N          65.9401   93.5277   12.6103 N.ar    1  UNL1       -0.2440
      7 C          66.6483   94.7668   12.1485 C.3     1  UNL1        0.1383
      8 C          66.0505   93.0898   14.0407 C.ar    1  UNL1        0.3539
      9 O          66.8690   93.8910   15.0093 O.2     1  UNL1       -0.2443
     10 N          65.3423   91.8508   14.5025 N.ar    1  UNL1       -0.1717
     11 C          64.5238   91.0496   13.5339 C.ar    1  UNL1        0.1867
     12 N          63.8157   89.8106   13.9957 N.ar    1  UNL1       -0.2291
     13 C          63.9260   89.3727   15.4261 C.3     1  UNL1        0.1555
     14 N          62.9972   89.0094   13.0271 N.ar    1  UNL1       -0.1485
     15 C          60.4313   87.0438    8.6909 C.ar    1  UNL1       -0.0222
     16 C          61.3679   86.3498    9.6349 C.ar    1  UNL1       -0.0042
     17 C          62.1864   87.1510   10.6035 C.ar    1  UNL1        0.0028
     18 C          62.0683   88.6461   10.6281 C.ar    1  UNL1        0.0375
     19 C          61.1317   89.3401    9.6841 C.ar    1  UNL1        0.0028
     20 C          60.3131   88.5390    8.7156 C.ar    1  UNL1       -0.0042
     21 C          60.2582   85.1566    6.9138 C.3     1  UNL1        0.0050
     22 C          59.6127   86.2427    7.7223 C.3     1  UNL1        0.0264
@<TRIPOS>BOND
     1    21    22    1
     2    22    15    1
     3    15    16   ar
     4    16    17   ar
     5    17    18   ar
     6    18     1    1
     7     1     2   ar
     8     2     3   ar
     9     3     4   ar
    10     4     5    2
    11     4     6   ar
    12     6     7    1
    13     6     8   ar
    14     8     9    2
    15     8    10   ar
    16    10    11   ar
    17    11    12   ar
    18    12    13    1
    19    12    14   ar
    20    18    19   ar
    21    19    20   ar
    22    20    15   ar
    23    14     1   ar
    24    11     3    1
@<TRIPOS>MOLECULE
*****
 22 24 0 0 0
SMALL
GASTEIGER

@<TRIPOS>ATOM
      1 C          63.0714   88.8811   12.4162 C.ar    1  UNL1        0.1819
      2 N          62.1997   89.4331   11.3275 N.ar    1  UNL1       -0.2172
      3 C          61.5181   88.5029   10.3683 C.ar    1  UNL1        0.1744
      4 C          60.6463   89.0550    9.2795 C.ar    1  UNL1        0.2851
      5 O          60.4562   90.5372    9.1500 O.2     1  UNL1       -0.2651
      6 N          59.9647   88.1247    8.3204 N.ar    1  UNL1       -0.2440
      7 C          59.0929   88.6768    7.2316 C.3     1  UNL1        0.1383
      8 C          60.1548   86.6425    8.4499 C.ar    1  UNL1        0.3539
      9 O          59.4731   85.7123    7.4906 O.2     1  UNL1       -0.2443
     10 N          61.0265   86.0904    9.5386 N.ar    1  UNL1       -0.1717
     11 C          61.7082   87.0207   10.4979 C.ar    1  UNL1        0.1867
     12 N          62.5799   86.4686   11.5866 N.ar    1  UNL1       -0.2291
     13 C          62.7700   84.9864   11.7161 C.3     1  UNL1        0.1555
     14 N          63.2615   87.3988   12.5457 N.ar    1  UNL1       -0.1485
     15 C          65.1163   91.6718   15.2939 C.ar    1  UNL1       -0.0222
     16 C          64.1334   90.6589   15.8018 C.ar    1  UNL1       -0.0042
     17 C          63.4517   89.7287   14.8425 C.ar    1  UNL1        0.0028
     18 C          63.7530   89.8113   13.3755 C.ar    1  UNL1        0.0375
     19 C          64.7360   90.8242   12.8676 C.ar    1  UNL1        0.0028
     20 C          65.4177   91.7543   13.8267 C.ar    1  UNL1       -0.0042
     21 C          67.2893   92.7579   16.2147 C.3     1  UNL1        0.0050
     22 C          65.7980   92.6020   16.2530 C.3     1  UNL1        0.0264
@<TRIPOS>BOND
     1    21    22    1
     2    22    15    1
     3    15    16   ar
     4    16    17   ar
     5    17    18   ar
     6    18     1    1
     7     1     2   ar
     8     2     3   ar
     9     3     4   ar
    10     4     5    2
    11     4     6   ar
    12     6     7    1
    13     6     8   ar
    14     8     9    2
    15     8    10   ar
    16    10    11   ar
    17    11    12   ar
    18    12    13    1
    19    12    14   ar
    20    18    19   ar
    21    19    20   ar
    22    20    15   ar
    23    14     1   ar
    24    11     3    1
@<TRIPOS>MOLECULE
*****
 22 24 0 0 0
SMALL
GASTEIGER

@<TRIPOS>ATOM
      1 C          63.9068   87.8853   14.2484 C.ar    1  UNL1        0.1819
      2 N          63.7473   86.8060   13.2190 N.ar    1  UNL1       -0.2172
      3 C          63.3115   85.4321   13.6343 C.ar    1  UNL1        0.1744
      4 C          63.1520   84.3527   12.6049 C.ar    1  UNL1        0.2851
      5 O          63.4284   84.6473   11.1603 O.2     1  UNL1       -0.2651
      6 N          62.7162   82.9789   13.0201 N.ar    1  UNL1       -0.2440
      7 C          62.5567   81.8995   11.9907 C.3     1  UNL1        0.1383
      8 C          62.4398   82.6843   14.4647 C.ar    1  UNL1        0.3539
      9 O          62.0039   81.3103   14.8799 O.2     1  UNL1       -0.2443
     10 N          62.5992   83.7636   15.4940 N.ar    1  UNL1       -0.1717
     11 C          63.0351   85.1376   15.0788 C.ar    1  UNL1        0.1867
     12 N          63.1945   86.2169   16.1082 N.ar    1  UNL1       -0.2291
     13 C          62.9181   85.9223   17.5528 C.3     1  UNL1        0.1555
     14 N          63.6304   87.5907   15.6930 N.ar    1  UNL1       -0.1485
     15 C          65.2143   92.0071   13.0028 C.ar    1  UNL1       -0.0222
     16 C          65.8194   91.3626   14.2145 C.ar    1  UNL1       -0.0042
     17 C          65.3835   89.9886   14.6297 C.ar    1  UNL1        0.0028
     18 C          64.3426   89.2593   13.8332 C.ar    1  UNL1        0.0375
     19 C          63.7375   89.9038   12.6214 C.ar    1  UNL1        0.0028
     20 C          64.1733   91.2777   12.2062 C.ar    1  UNL1       -0.0042
     21 C          65.7780   93.7193   11.1318 C.3     1  UNL1        0.0050
     22 C          65.6501   93.3810   12.5876 C.3     1  UNL1        0.0264
@<TRIPOS>BOND
     1    21    22    1
     2    22    15    1
     3    15    16   ar
     4    16    17   ar
     5    17    18   ar
     6    18     1    1
     7     1     2   ar
     8     2     3   ar
     9     3     4   ar
    10     4     5    2
    11     4     6   ar
    12     6     7    1
    13     6     8   ar
    14     8     9    2
    15     8    10   ar
    16    10    11   ar
    17    11    12   ar
    18    12    13    1
    19    12    14   ar
    20    18    19   ar
    21    19    20   ar
    22    20    15   ar
    23    14     1   ar
    24    11     3    1
@<TRIPOS>MOLECULE
*****
 22 24 0 0 0
SMALL
GASTEIGER

@<TRIPOS>ATOM
      1 C          61.9920   86.7077   11.1161 C.ar    1  UNL1        0.1819
      2 N          62.0183   85.2146   11.2571 N.ar    1  UNL1       -0.2172
      3 C          62.7709   84.5813   12.3895 C.ar    1  UNL1        0.1744
      4 C          62.7972   83.0882   12.5306 C.ar    1  UNL1        0.2851
      5 O          62.0708   82.2283   11.5391 O.2     1  UNL1       -0.2651
      6 N          63.5499   82.4549   13.6630 N.ar    1  UNL1       -0.2440
      7 C          63.5762   80.9617   13.8040 C.3     1  UNL1        0.1383
      8 C          64.2763   83.3148   14.6544 C.ar    1  UNL1        0.3539
      9 O          65.0290   82.6814   15.7869 O.2     1  UNL1       -0.2443
     10 N          64.2501   84.8079   14.5134 N.ar    1  UNL1       -0.1717
     11 C          63.4974   85.4412   13.3810 C.ar    1  UNL1        0.1867
     12 N          63.4712   86.9343   13.2400 N.ar    1  UNL1       -0.2291
     13 C          64.1976   87.7941   14.2314 C.3     1  UNL1        0.1555
     14 N          62.7185   87.5675   12.1075 N.ar    1  UNL1       -0.1485
     15 C          59.7340   88.6076    7.7187 C.ar    1  UNL1       -0.0222
     16 C          60.3595   89.4671    8.7771 C.ar    1  UNL1       -0.0042
     17 C          61.1122   88.8337    9.9095 C.ar    1  UNL1        0.0028
     18 C          61.2393   87.3410    9.9836 C.ar    1  UNL1        0.0375
     19 C          60.6138   86.4815    8.9253 C.ar    1  UNL1        0.0028
     20 C          59.8611   87.1148    7.7929 C.ar    1  UNL1       -0.0042
     21 C          59.6478   90.2748    5.7281 C.3     1  UNL1        0.0050
     22 C          58.9813   89.2408    6.5863 C.3     1  UNL1        0.0264
@<TRIPOS>BOND
     1    21    22    1
     2    22    15    1
     3    15    16   ar
     4    16    17   ar
     5    17    18   ar
     6    18     1    1
     7     1     2   ar
     8     2     3   ar
     9     3     4   ar
    10     4     5    2
    11     4     6   ar
    12     6     7    1
    13     6     8   ar
    14     8     9    2
    15     8    10   ar
    16    10    11   ar
    17    11    12   ar
    18    12    13    1
    19    12    14   ar
    20    18    19   ar
    21    19    20   ar
    22    20    15   ar
    23    14     1   ar
    24    11     3    1
@<TRIPOS>MOLECULE
*****
 22 24 0 0 0
SMALL
GASTEIGER

@<TRIPOS>ATOM
      1 C          62.7057   89.8805   11.9282 C.ar    1  UNL1        0.1819
      2 N          62.8886   88.7487   10.9610 N.ar    1  UNL1       -0.2172
      3 C          61.7212   88.2480   10.1632 C.ar    1  UNL1        0.1744
      4 C          61.9040   87.1162    9.1959 C.ar    1  UNL1        0.2851
      5 O          63.2542   86.4851    9.0264 O.2     1  UNL1       -0.2651
      6 N          60.7366   86.6155    8.3981 N.ar    1  UNL1       -0.2440
      7 C          60.9194   85.4837    7.4308 C.3     1  UNL1        0.1383
      8 C          59.3864   87.2466    8.5675 C.ar    1  UNL1        0.3539
      9 O          58.2190   86.7459    7.7697 O.2     1  UNL1       -0.2443
     10 N          59.2036   88.3784    9.5348 N.ar    1  UNL1       -0.1717
     11 C          60.3710   88.8791   10.3326 C.ar    1  UNL1        0.1867
     12 N          60.1882   90.0109   11.2999 N.ar    1  UNL1       -0.2291
     13 C          58.8380   90.6420   11.4693 C.3     1  UNL1        0.1555
     14 N          61.3556   90.5116   12.0977 N.ar    1  UNL1       -0.1485
     15 C          66.2079   91.3828   14.3218 C.ar    1  UNL1       -0.0222
     16 C          65.4404   90.1815   14.7886 C.ar    1  UNL1       -0.0042
     17 C          64.2730   89.6807   13.9907 C.ar    1  UNL1        0.0028
     18 C          63.8731   90.3813   12.7261 C.ar    1  UNL1        0.0375
     19 C          64.6406   91.5825   12.2593 C.ar    1  UNL1        0.0028
     20 C          65.8079   92.0833   13.0571 C.ar    1  UNL1       -0.0042
     21 C          67.5652   93.3569   15.3268 C.3     1  UNL1        0.0050
     22 C          67.3752   91.8835   15.1195 C.3     1  UNL1        0.0264
@<TRIPOS>BOND
     1    21    22    1
     2    22    15    1
     3    15    16   ar
     4    16    17   ar
     5    17    18   ar
     6    18     1    1
     7     1     2   ar
     8     2     3   ar
     9     3     4   ar
    10     4     5    2
    11     4     6   ar
    12     6     7    1
    13     6     8   ar
    14     8     9    2
    15     8    10   ar
    16    10    11   ar
    17    11    12   ar
    18    12    13    1
    19    12    14   ar
    20    18    19   ar
    21    19    20   ar
    22    20    15   ar
    23    14     1   ar
    24    11     3    1
@<TRIPOS>MOLECULE
*****
 22 24 0 0 0
SMALL
GASTEIGER

@<TRIPOS>ATOM
      1 C          63.2301   84.8561   13.8137 C.ar    1  UNL1        0.1819
      2 N          63.2913   86.1137   12.9985 N.ar    1  UNL1       -0.2172
      3 C          63.4026   87.4449   13.6807 C.ar    1  UNL1        0.1744
      4 C          63.4638   88.7026   12.8654 C.ar    1  UNL1        0.2851
      5 O          63.4137   88.6290   11.3681 O.2     1  UNL1       -0.2651
      6 N          63.5752   90.0339   13.5476 N.ar    1  UNL1       -0.2440
      7 C          63.6364   91.2916   12.7323 C.3     1  UNL1        0.1383
      8 C          63.6253   90.1075   15.0449 C.ar    1  UNL1        0.3539
      9 O          63.7367   91.4388   15.7270 O.2     1  UNL1       -0.2443
     10 N          63.5641   88.8499   15.8601 N.ar    1  UNL1       -0.1717
     11 C          63.4528   87.5185   15.1780 C.ar    1  UNL1        0.1867
     12 N          63.3916   86.2609   15.9932 N.ar    1  UNL1       -0.2291
     13 C          63.4417   86.3346   17.4906 C.3     1  UNL1        0.1555
     14 N          63.2802   84.9297   15.3111 N.ar    1  UNL1       -0.1485
     15 C          62.8959   80.8621   11.7674 C.ar    1  UNL1       -0.0222
     16 C          63.4977   82.0287   11.0416 C.ar    1  UNL1       -0.0042
     17 C          63.6091   83.3600   11.7237 C.ar    1  UNL1        0.0028
     18 C          63.1187   83.5247   13.1316 C.ar    1  UNL1        0.0375
     19 C          62.5169   82.3581   13.8575 C.ar    1  UNL1        0.0028
     20 C          62.4055   81.0269   13.1755 C.ar    1  UNL1       -0.0042
     21 C          62.7802   79.4537    9.5874 C.3     1  UNL1        0.0050
     22 C          62.7846   79.5308   11.0854 C.3     1  UNL1        0.0264
@<TRIPOS>BOND
     1    21    22    1
     2    22    15    1
     3    15    16   ar
     4    16    17   ar
     5    17    18   ar
     6    18     1    1
     7     1     2   ar
     8     2     3   ar
     9     3     4   ar
    10     4     5    2
    11     4     6   ar
    12     6     7    1
    13     6     8   ar
    14     8     9    2
    15     8    10   ar
    16    10    11   ar
    17    11    12   ar
    18    12    13    1
    19    12    14   ar
    20    18    19   ar
    21    19    20   ar
    22    20    15   ar
    23    14     1   ar
    24    11     3    1
@<TRIPOS>MOLECULE
*****
 22 24 0 0 0
SMALL
GASTEIGER

@<TRIPOS>ATOM
      1 C          63.5637   87.5019   13.4510 C.ar    1  UNL1        0.1819
      2 N          63.8716   86.1702   14.0689 N.ar    1  UNL1       -0.2172
      3 C          63.5067   84.9065   13.3478 C.ar    1  UNL1        0.1744
      4 C          63.8146   83.5748   13.9657 C.ar    1  UNL1        0.2851
      5 O          64.4874   83.5068   15.3046 O.2     1  UNL1       -0.2651
      6 N          63.4497   82.3111   13.2446 N.ar    1  UNL1       -0.2440
      7 C          63.7576   80.9793   13.8625 C.3     1  UNL1        0.1383
      8 C          62.7769   82.3791   11.9057 C.ar    1  UNL1        0.3539
      9 O          62.4121   81.1154   11.1846 O.2     1  UNL1       -0.2443
     10 N          62.4690   83.7108   11.2878 N.ar    1  UNL1       -0.1717
     11 C          62.8339   84.9745   12.0089 C.ar    1  UNL1        0.1867
     12 N          62.5260   86.3062   11.3910 N.ar    1  UNL1       -0.2291
     13 C          61.8533   86.3742   10.0521 C.3     1  UNL1        0.1555
     14 N          62.8909   87.5699   12.1121 N.ar    1  UNL1       -0.1485
     15 C          64.6583   91.2930   15.6142 C.ar    1  UNL1       -0.0222
     16 C          65.1183   91.0751   14.2032 C.ar    1  UNL1       -0.0042
     17 C          64.7534   89.8113   13.4822 C.ar    1  UNL1        0.0028
     18 C          63.9286   88.7656   14.1721 C.ar    1  UNL1        0.0375
     19 C          63.4686   88.9836   15.5831 C.ar    1  UNL1        0.0028
     20 C          63.8334   90.2472   16.3041 C.ar    1  UNL1       -0.0042
     21 C          66.4486   93.0230   16.3568 C.3     1  UNL1        0.0050
     22 C          65.0231   92.5567   16.3353 C.3     1  UNL1        0.0264
@<TRIPOS>BOND
     1    21    22    1
     2    22    15    1
     3    15    16   ar
     4    16    17   ar
     5    17    18   ar
     6    18     1    1
     7     1     2   ar
     8     2     3   ar
     9     3     4   ar
    10     4     5    2
    11     4     6   ar
    12     6     7    1
    13     6     8   ar
    14     8     9    2
    15     8    10   ar
    16    10    11   ar
    17    11    12   ar
    18    12    13    1
    19    12    14   ar
    20    18    19   ar
    21    19    20   ar
    22    20    15   ar
    23    14     1   ar
    24    11     3    1
@<TRIPOS>MOLECULE
*****
 22 24 0 0 0
SMALL
GASTEIGER

@<TRIPOS>ATOM
      1 C          62.7818   85.3137   11.7073 C.ar    1  UNL1        0.1819
      2 N          63.4492   86.0613   12.8233 N.ar    1  UNL1       -0.2172
      3 C          63.4552   87.5612   12.8229 C.ar    1  UNL1        0.1744
      4 C          64.1226   88.3089   13.9390 C.ar    1  UNL1        0.2851
      5 O          64.7840   87.5566   15.0555 O.2     1  UNL1       -0.2651
      6 N          64.1285   89.8089   13.9386 N.ar    1  UNL1       -0.2440
      7 C          64.7960   90.5566   15.0547 C.3     1  UNL1        0.1383
      8 C          63.4671   90.5612   12.8222 C.ar    1  UNL1        0.3539
      9 O          63.4731   92.0613   12.8218 O.2     1  UNL1       -0.2443
     10 N          62.7997   89.8136   11.7061 N.ar    1  UNL1       -0.1717
     11 C          62.7937   88.3136   11.7065 C.ar    1  UNL1        0.1867
     12 N          62.1263   87.5660   10.5904 N.ar    1  UNL1       -0.2291
     13 C          61.4649   88.3183    9.4740 C.3     1  UNL1        0.1555
     14 N          62.1204   86.0660   10.5908 N.ar    1  UNL1       -0.1485
     15 C          62.7639   80.8136   11.7083 C.ar    1  UNL1       -0.0222
     16 C          62.2776   81.5658   12.9115 C.ar    1  UNL1       -0.0042
     17 C          62.2836   83.0659   12.9112 C.ar    1  UNL1        0.0028
     18 C          62.7758   83.8136   11.7076 C.ar    1  UNL1        0.0375
     19 C          63.2621   83.0614   10.5044 C.ar    1  UNL1        0.0028
     20 C          63.2562   81.5615   10.5048 C.ar    1  UNL1       -0.0042
     21 C          62.7838   78.5634   10.4101 C.3     1  UNL1        0.0050
     22 C          62.7580   79.3137   11.7086 C.3     1  UNL1        0.0264
@<TRIPOS>BOND
     1    21    22    1
     2    22    15    1
     3    15    16   ar
     4    16    17   ar
     5    17    18   ar
     6    18     1    1
     7     1     2   ar
     8     2     3   ar
     9     3     4   ar
    10     4     5    2
    11     4     6   ar
    12     6     7    1
    13     6     8   ar
    14     8     9    2
    15     8    10   ar
    16    10    11   ar
    17    11    12   ar
    18    12    13    1
    19    12    14   ar
    20    18    19   ar
    21    19    20   ar
    22    20    15   ar
    23    14     1   ar
    24    11     3    1
@<TRIPOS>MOLECULE
*****
 22 24 0 0 0
SMALL
GASTEIGER

@<TRIPOS>ATOM
      1 C          64.9610   90.5574   14.6506 C.ar    1  UNL1        0.1819
      2 N          64.6443   91.0079   13.2554 N.ar    1  UNL1       -0.2172
      3 C          65.2486   92.2721   12.7202 C.ar    1  UNL1        0.1744
      4 C          64.9320   92.7227   11.3249 C.ar    1  UNL1        0.2851
      5 O          64.0110   91.9089   10.4648 O.2     1  UNL1       -0.2651
      6 N          65.5363   93.9869   10.7897 N.ar    1  UNL1       -0.2440
      7 C          65.2196   94.4374    9.3943 C.3     1  UNL1        0.1383
      8 C          66.4572   94.8006   11.6497 C.ar    1  UNL1        0.3539
      9 O          67.0616   96.0649   11.1144 O.2     1  UNL1       -0.2443
     10 N          66.7739   94.3502   13.0449 N.ar    1  UNL1       -0.1717
     11 C          66.1696   93.0859   13.5802 C.ar    1  UNL1        0.1867
     12 N          66.4863   92.6354   14.9754 N.ar    1  UNL1       -0.2291
     13 C          67.4072   93.4491   15.8355 C.3     1  UNL1        0.1555
     14 N          65.8819   91.3712   15.5107 N.ar    1  UNL1       -0.1485
     15 C          63.1481   86.7646   16.2564 C.ar    1  UNL1       -0.0222
     16 C          62.8656   88.0747   16.9301 C.ar    1  UNL1       -0.0042
     17 C          63.4699   89.3390   16.3949 C.ar    1  UNL1        0.0028
     18 C          64.3567   89.2931   15.1859 C.ar    1  UNL1        0.0375
     19 C          64.6391   87.9830   14.5122 C.ar    1  UNL1        0.0028
     20 C          64.0349   86.7188   15.0474 C.ar    1  UNL1       -0.0042
     21 C          62.4060   84.3001   15.9027 C.3     1  UNL1        0.0050
     22 C          62.5438   85.5003   16.7917 C.3     1  UNL1        0.0264
@<TRIPOS>BOND
     1    21    22    1
     2    22    15    1
     3    15    16   ar
     4    16    17   ar
     5    17    18   ar
     6    18     1    1
     7     1     2   ar
     8     2     3   ar
     9     3     4   ar
    10     4     5    2
    11     4     6   ar
    12     6     7    1
    13     6     8   ar
    14     8     9    2
    15     8    10   ar
    16    10    11   ar
    17    11    12   ar
    18    12    13    1
    19    12    14   ar
    20    18    19   ar
    21    19    20   ar
    22    20    15   ar
    23    14     1   ar
    24    11     3    1
