@<TRIPOS>MOLECULE
*****
 40 42 0 0 0
SMALL
GASTEIGER

@<TRIPOS>ATOM
      1 N          62.7211   88.9164   12.5027 N.pl3   1  UNL1       -0.1898
      2 C          63.3238   87.7547   13.2358 C.ar    1  UNL1        0.0793
      3 C          64.1864   87.9935   14.4395 C.ar    1  UNL1        0.0170
      4 C          64.7891   86.8319   15.1726 C.ar    1  UNL1        0.0014
      5 C          64.5293   85.4316   14.7019 C.ar    1  UNL1        0.0009
      6 C          63.6667   85.1928   13.4982 C.ar    1  UNL1        0.0118
      7 C          63.0640   86.3544   12.7652 C.ar    1  UNL1        0.0725
      8 CL         62.2013   86.1157   11.5614 Cl      1  UNL1       -0.0809
      9 C          63.4068   83.7925   13.0276 C.ar    1  UNL1        0.0011
     10 C          64.2357   83.2064   11.9233 C.ar    1  UNL1        0.0031
     11 C          63.9759   81.8061   11.4527 C.ar    1  UNL1        0.0372
     12 C          62.8871   80.9918   12.0863 C.ar    1  UNL1        0.1468
     13 C          62.0582   81.5778   13.1905 C.ar    1  UNL1        0.0372
     14 C          62.3181   82.9782   13.6612 C.ar    1  UNL1        0.0031
     15 O          62.6273   79.5914   11.6156 O.3     1  UNL1       -0.4045
     16 C          62.9608   79.1997   10.2066 C.3     1  UNL1        0.5753
     17 F          63.2944   78.8080    8.7976 F       1  UNL1       -0.1328
     18 F          63.0775   77.7663   10.6328 F       1  UNL1       -0.1328
     19 F          62.8441   80.6331    9.7805 F       1  UNL1       -0.1328
     20 S          63.5287   90.1595   12.2739 S.O2    1  UNL1        0.0763
     21 O          63.2644   90.5911   13.6859 O.2     1  UNL1       -0.1497
     22 O          63.7929   89.7279   10.8618 O.2     1  UNL1       -0.1497
     23 C          64.3363   91.4026   12.0451 C.ar    1  UNL1        0.1213
     24 C          64.2820   92.0985   10.7174 C.ar    1  UNL1        0.0230
     25 C          65.0896   93.3416   10.4886 C.ar    1  UNL1        0.0379
     26 C          65.9516   93.8889   11.5874 C.ar    1  UNL1        0.1347
     27 C          66.0060   93.1930   12.9151 C.ar    1  UNL1        0.0095
     28 C          66.8680   93.7402   14.0140 C.3     1  UNL1        0.0339
     29 C          65.1984   91.9498   13.1440 C.ar    1  UNL1       -0.0040
     30 C          65.2527   91.2539   14.4716 C.3     1  UNL1        0.0322
     31 O          66.7592   95.1320   11.3586 O.3     1  UNL1       -0.4739
     32 C          67.2245   95.4801    9.9757 C.3     1  UNL1        0.2020
     33 C          66.9849   96.8558    9.4279 C.3     1  UNL1        0.0536
     34 C          67.9294   94.4526    9.1406 C.2     1  UNL1        0.0900
     35 O          68.9766   93.5741    9.7584 O.co2   1  UNL1       -0.5455
     36 O          67.5871   94.3035    7.6879 O.co2   1  UNL1       -0.5455
     37 C          61.3107   88.8348   11.9985 C.3     1  UNL1        0.1159
     38 C          60.6372   90.0592   11.4533 C.3     1  UNL1        0.0234
     39 C          60.5018   88.9614    9.1025 C.3     1  UNL1        0.0001
     40 C          60.1308   90.0708   10.0414 C.3     1  UNL1        0.0018
@<TRIPOS>UNITY_ATOM_ATTR
35 1
charge -1
@<TRIPOS>BOND
     1    39    40    1
     2    40    38    1
     3    38    37    1
     4    37     1    1
     5     1     2    1
     6     2     3   ar
     7     3     4   ar
     8     4     5   ar
     9     5     6   ar
    10     6     9    1
    11     9    10   ar
    12    10    11   ar
    13    11    12   ar
    14    12    15    1
    15    15    16    1
    16    16    17    1
    17    16    18    1
    18    16    19    1
    19    12    13   ar
    20    13    14   ar
    21     6     7   ar
    22     7     8    1
    23     1    20    1
    24    20    21    2
    25    20    22    2
    26    20    23    1
    27    23    24   ar
    28    24    25   ar
    29    25    26   ar
    30    26    31    1
    31    31    32    1
    32    32    33    1
    33    32    34    1
    34    34    35   ar
    35    34    36   ar
    36    26    27   ar
    37    27    28    1
    38    27    29   ar
    39    29    30    1
    40     7     2   ar
    41    29    23   ar
    42    14     9   ar
@<TRIPOS>MOLECULE
*****
 40 42 0 0 0
SMALL
GASTEIGER

@<TRIPOS>ATOM
      1 N          61.2709   90.0080   10.7881 N.pl3   1  UNL1       -0.1898
      2 C          61.2402   88.7092   10.0382 C.ar    1  UNL1        0.0793
      3 C          60.5917   88.6382    8.6875 C.ar    1  UNL1        0.0170
      4 C          60.5609   87.3395    7.9377 C.ar    1  UNL1        0.0014
      5 C          61.1787   86.1117    8.5385 C.ar    1  UNL1        0.0009
      6 C          61.8272   86.1827    9.8892 C.ar    1  UNL1        0.0118
      7 C          61.8579   87.4815   10.6390 C.ar    1  UNL1        0.0725
      8 CL         62.5065   87.5525   11.9898 Cl      1  UNL1       -0.0809
      9 C          62.4450   84.9550   10.4900 C.ar    1  UNL1        0.0011
     10 C          62.1245   84.5692   11.9037 C.ar    1  UNL1        0.0031
     11 C          62.7423   83.3415   12.5045 C.ar    1  UNL1        0.0372
     12 C          63.6805   82.4995   11.6917 C.ar    1  UNL1        0.1468
     13 C          64.0010   82.8852   10.2780 C.ar    1  UNL1        0.0372
     14 C          63.3832   84.1130    9.6772 C.ar    1  UNL1        0.0031
     15 O          64.2983   81.2717   12.2925 O.3     1  UNL1       -0.4045
     16 C          63.4625   80.3388   13.1177 C.3     1  UNL1        0.5753
     17 F          62.6267   79.4057   13.9430 F       1  UNL1       -0.1328
     18 F          64.1826   80.7878   14.3546 F       1  UNL1       -0.1328
     19 F          62.7425   79.8898   11.8809 F       1  UNL1       -0.1328
     20 S          62.5382   90.4621   11.4498 S.O2    1  UNL1        0.0763
     21 O          61.8512   90.4366   12.7830 O.2     1  UNL1       -0.1497
     22 O          63.2252   90.4876   10.1166 O.2     1  UNL1       -0.1497
     23 C          63.8055   90.9162   12.1115 C.ar    1  UNL1        0.1213
     24 C          64.2226   90.3190   13.4227 C.ar    1  UNL1        0.0230
     25 C          65.4898   90.7731   14.0844 C.ar    1  UNL1        0.0379
     26 C          66.3400   91.8244   13.4349 C.ar    1  UNL1        0.1347
     27 C          65.9229   92.4217   12.1236 C.ar    1  UNL1        0.0095
     28 C          66.7730   93.4731   11.4741 C.3     1  UNL1        0.0339
     29 C          64.6556   91.9676   11.4619 C.ar    1  UNL1       -0.0040
     30 C          64.2385   92.5648   10.1507 C.3     1  UNL1        0.0322
     31 O          67.6072   92.2785   14.0966 O.3     1  UNL1       -0.4739
     32 C          67.5781   92.7756   15.5115 C.3     1  UNL1        0.2020
     33 C          66.3032   92.7197   16.3000 C.3     1  UNL1        0.0536
     34 C          68.8238   93.3285   16.1381 C.2     1  UNL1        0.0900
     35 O          69.8895   92.3978   16.6361 O.co2   1  UNL1       -0.5455
     36 O          69.0037   94.8121   16.2666 O.co2   1  UNL1       -0.5455
     37 C          60.0345   90.8526   10.8763 C.3     1  UNL1        0.1159
     38 C          58.8866   90.4144   11.7368 C.3     1  UNL1        0.0234
     39 C          57.8710   88.6703   13.3728 C.3     1  UNL1        0.0001
     40 C          58.8623   89.0263   12.3049 C.3     1  UNL1        0.0018
@<TRIPOS>UNITY_ATOM_ATTR
35 1
charge -1
@<TRIPOS>BOND
     1    39    40    1
     2    40    38    1
     3    38    37    1
     4    37     1    1
     5     1     2    1
     6     2     3   ar
     7     3     4   ar
     8     4     5   ar
     9     5     6   ar
    10     6     9    1
    11     9    10   ar
    12    10    11   ar
    13    11    12   ar
    14    12    15    1
    15    15    16    1
    16    16    17    1
    17    16    18    1
    18    16    19    1
    19    12    13   ar
    20    13    14   ar
    21     6     7   ar
    22     7     8    1
    23     1    20    1
    24    20    21    2
    25    20    22    2
    26    20    23    1
    27    23    24   ar
    28    24    25   ar
    29    25    26   ar
    30    26    31    1
    31    31    32    1
    32    32    33    1
    33    32    34    1
    34    34    35   ar
    35    34    36   ar
    36    26    27   ar
    37    27    28    1
    38    27    29   ar
    39    29    30    1
    40     7     2   ar
    41    29    23   ar
    42    14     9   ar
@<TRIPOS>MOLECULE
*****
 40 42 0 0 0
SMALL
GASTEIGER

@<TRIPOS>ATOM
      1 N          63.6181   88.9392   14.8824 N.pl3   1  UNL1       -0.1898
      2 C          63.6967   87.5959   14.2196 C.ar    1  UNL1        0.0793
      3 C          64.3418   86.4445   14.9324 C.ar    1  UNL1        0.0170
      4 C          64.4204   85.1012   14.2695 C.ar    1  UNL1        0.0014
      5 C          63.8540   84.9093   12.8939 C.ar    1  UNL1        0.0009
      6 C          63.2089   86.0607   12.1811 C.ar    1  UNL1        0.0118
      7 C          63.1302   87.4040   12.8440 C.ar    1  UNL1        0.0725
      8 CL         62.4851   88.5555   12.1312 Cl      1  UNL1       -0.0809
      9 C          62.6424   85.8688   10.8055 C.ar    1  UNL1        0.0011
     10 C          61.3431   86.5187   10.4321 C.ar    1  UNL1        0.0031
     11 C          60.7766   86.3268    9.0565 C.ar    1  UNL1        0.0372
     12 C          61.5094   85.4851    8.0543 C.ar    1  UNL1        0.1468
     13 C          62.8087   84.8352    8.4278 C.ar    1  UNL1        0.0372
     14 C          63.3752   85.0271    9.8034 C.ar    1  UNL1        0.0031
     15 O          60.9429   85.2932    6.6787 O.3     1  UNL1       -0.4045
     16 C          61.5817   84.3192    5.7337 C.3     1  UNL1        0.5753
     17 F          62.2206   83.3451    4.7886 F       1  UNL1       -0.1328
     18 F          62.6801   85.3038    5.4614 F       1  UNL1       -0.1328
     19 F          60.4834   83.3346    6.0061 F       1  UNL1       -0.1328
     20 S          64.2823   90.1269   14.2514 S.O2    1  UNL1        0.0763
     21 O          62.9831   90.8754   14.2927 O.2     1  UNL1       -0.1497
     22 O          65.5815   89.3784   14.2101 O.2     1  UNL1       -0.1497
     23 C          64.9465   91.3146   13.6204 C.ar    1  UNL1        0.1213
     24 C          64.7345   91.6069   12.1645 C.ar    1  UNL1        0.0230
     25 C          65.3987   92.7946   11.5335 C.ar    1  UNL1        0.0379
     26 C          66.2750   93.6900   12.3583 C.ar    1  UNL1        0.1347
     27 C          66.4871   93.3977   13.8142 C.ar    1  UNL1        0.0095
     28 C          67.3634   94.2931   14.6390 C.3     1  UNL1        0.0339
     29 C          65.8229   92.2100   14.4453 C.ar    1  UNL1       -0.0040
     30 C          66.0349   91.9177   15.9011 C.3     1  UNL1        0.0322
     31 O          66.9392   94.8777   11.7273 O.3     1  UNL1       -0.4739
     32 C          66.6787   95.2053   10.2869 C.3     1  UNL1        0.2020
     33 C          65.5241   96.0878    9.9154 C.3     1  UNL1        0.0536
     34 C          67.5729   94.6504    9.2179 C.2     1  UNL1        0.0900
     35 O          67.2460   94.8812    7.7723 O.co2   1  UNL1       -0.5455
     36 O          68.7938   93.8646    9.5946 O.co2   1  UNL1       -0.5455
     37 C          62.8752   89.0948   16.1762 C.3     1  UNL1        0.1159
     38 C          63.1976   88.2026   17.3382 C.3     1  UNL1        0.0234
     39 C          62.3972   85.7310   17.3211 C.3     1  UNL1        0.0001
     40 C          62.2191   87.1510   17.7703 C.3     1  UNL1        0.0018
@<TRIPOS>UNITY_ATOM_ATTR
35 1
charge -1
@<TRIPOS>BOND
     1    39    40    1
     2    40    38    1
     3    38    37    1
     4    37     1    1
     5     1     2    1
     6     2     3   ar
     7     3     4   ar
     8     4     5   ar
     9     5     6   ar
    10     6     9    1
    11     9    10   ar
    12    10    11   ar
    13    11    12   ar
    14    12    15    1
    15    15    16    1
    16    16    17    1
    17    16    18    1
    18    16    19    1
    19    12    13   ar
    20    13    14   ar
    21     6     7   ar
    22     7     8    1
    23     1    20    1
    24    20    21    2
    25    20    22    2
    26    20    23    1
    27    23    24   ar
    28    24    25   ar
    29    25    26   ar
    30    26    31    1
    31    31    32    1
    32    32    33    1
    33    32    34    1
    34    34    35   ar
    35    34    36   ar
    36    26    27   ar
    37    27    28    1
    38    27    29   ar
    39    29    30    1
    40     7     2   ar
    41    29    23   ar
    42    14     9   ar
@<TRIPOS>MOLECULE
*****
 40 42 0 0 0
SMALL
GASTEIGER

@<TRIPOS>ATOM
      1 N          63.9340   89.1124   14.5626 N.pl3   1  UNL1       -0.1898
      2 C          63.5085   88.0200   13.6269 C.ar    1  UNL1        0.0793
      3 C          63.9115   86.6008   13.8982 C.ar    1  UNL1        0.0170
      4 C          63.4860   85.5085   12.9624 C.ar    1  UNL1        0.0014
      5 C          62.6576   85.8352   11.7554 C.ar    1  UNL1        0.0009
      6 C          62.2547   87.2544   11.4841 C.ar    1  UNL1        0.0118
      7 C          62.6801   88.3467   12.4198 C.ar    1  UNL1        0.0725
      8 CL         62.2772   89.7660   12.1485 Cl      1  UNL1       -0.0809
      9 C          61.4263   87.5811   10.2770 C.ar    1  UNL1        0.0011
     10 C          61.0753   86.5037    9.2942 C.ar    1  UNL1        0.0031
     11 C          60.2469   86.8305    8.0871 C.ar    1  UNL1        0.0372
     12 C          59.7695   88.2346    7.8629 C.ar    1  UNL1        0.1468
     13 C          60.1204   89.3120    8.8457 C.ar    1  UNL1        0.0372
     14 C          60.9488   88.9853   10.0528 C.ar    1  UNL1        0.0031
     15 O          58.9411   88.5614    6.6558 O.3     1  UNL1       -0.4045
     16 C          58.9857   89.9400    6.0664 C.3     1  UNL1        0.5753
     17 F          59.0304   91.3186    5.4768 F       1  UNL1       -0.1328
     18 F          57.5073   90.0786    6.2787 F       1  UNL1       -0.1328
     19 F          60.4641   89.8013    5.8540 F       1  UNL1       -0.1328
     20 S          64.5207   90.3807   14.0174 S.O2    1  UNL1        0.0763
     21 O          63.3414   91.1491   14.5357 O.2     1  UNL1       -0.1497
     22 O          65.7001   89.6123   13.4991 O.2     1  UNL1       -0.1497
     23 C          65.1075   91.6490   13.4722 C.ar    1  UNL1        0.1213
     24 C          64.8184   92.0625   12.0597 C.ar    1  UNL1        0.0230
     25 C          65.4051   93.3308   11.5144 C.ar    1  UNL1        0.0379
     26 C          66.2809   94.1855   12.3818 C.ar    1  UNL1        0.1347
     27 C          66.5701   93.7720   13.7944 C.ar    1  UNL1        0.0095
     28 C          67.4459   94.6267   14.6618 C.3     1  UNL1        0.0339
     29 C          65.9834   92.5037   14.3396 C.ar    1  UNL1       -0.0040
     30 C          66.2725   92.0901   15.7522 C.3     1  UNL1        0.0322
     31 O          66.8677   95.4538   11.8366 O.3     1  UNL1       -0.4739
     32 C          66.5911   95.8595   10.4192 C.3     1  UNL1        0.2020
     33 C          65.3466   96.6287   10.0885 C.3     1  UNL1        0.0536
     34 C          67.5591   95.4959    9.3325 C.2     1  UNL1        0.0900
     35 O          68.4378   94.2896    9.4835 O.co2   1  UNL1       -0.5455
     36 O          67.6484   96.3387    8.0949 O.co2   1  UNL1       -0.5455
     37 C          63.7727   88.9366   16.0435 C.3     1  UNL1        0.1159
     38 C          62.5304   88.2998   16.5923 C.3     1  UNL1        0.0234
     39 C          62.4926   85.7611   17.1433 C.3     1  UNL1        0.0001
     40 C          62.6371   87.1855   17.5908 C.3     1  UNL1        0.0018
@<TRIPOS>UNITY_ATOM_ATTR
35 1
charge -1
@<TRIPOS>BOND
     1    39    40    1
     2    40    38    1
     3    38    37    1
     4    37     1    1
     5     1     2    1
     6     2     3   ar
     7     3     4   ar
     8     4     5   ar
     9     5     6   ar
    10     6     9    1
    11     9    10   ar
    12    10    11   ar
    13    11    12   ar
    14    12    15    1
    15    15    16    1
    16    16    17    1
    17    16    18    1
    18    16    19    1
    19    12    13   ar
    20    13    14   ar
    21     6     7   ar
    22     7     8    1
    23     1    20    1
    24    20    21    2
    25    20    22    2
    26    20    23    1
    27    23    24   ar
    28    24    25   ar
    29    25    26   ar
    30    26    31    1
    31    31    32    1
    32    32    33    1
    33    32    34    1
    34    34    35   ar
    35    34    36   ar
    36    26    27   ar
    37    27    28    1
    38    27    29   ar
    39    29    30    1
    40     7     2   ar
    41    29    23   ar
    42    14     9   ar
@<TRIPOS>MOLECULE
*****
 40 42 0 0 0
SMALL
GASTEIGER

@<TRIPOS>ATOM
      1 N          63.0368   88.1045   12.6291 N.pl3   1  UNL1       -0.1898
      2 C          63.6807   89.2750   13.3113 C.ar    1  UNL1        0.0793
      3 C          63.7782   89.3104   14.8077 C.ar    1  UNL1        0.0170
      4 C          64.4221   90.4809   15.4897 C.ar    1  UNL1        0.0014
      5 C          64.9684   91.6160   14.6755 C.ar    1  UNL1        0.0009
      6 C          64.8709   91.5806   13.1791 C.ar    1  UNL1        0.0118
      7 C          64.2270   90.4101   12.4970 C.ar    1  UNL1        0.0725
      8 CL         64.1295   90.3746   11.0005 Cl      1  UNL1       -0.0809
      9 C          65.4173   92.7157   12.3648 C.ar    1  UNL1        0.0011
     10 C          65.3763   92.6519   10.8667 C.ar    1  UNL1        0.0031
     11 C          65.9227   93.7869   10.0525 C.ar    1  UNL1        0.0372
     12 C          66.5100   94.9859   10.7362 C.ar    1  UNL1        0.1468
     13 C          66.5510   95.0497   12.2343 C.ar    1  UNL1        0.0372
     14 C          66.0046   93.9146   13.0485 C.ar    1  UNL1        0.0031
     15 O          67.0564   96.1209    9.9219 O.3     1  UNL1       -0.4045
     16 C          66.4764   96.4228    8.5719 C.3     1  UNL1        0.5753
     17 F          65.8965   96.7246    7.2218 F       1  UNL1       -0.1328
     18 F          65.1855   96.8308    9.2177 F       1  UNL1       -0.1328
     19 F          67.7673   96.0147    7.9262 F       1  UNL1       -0.1328
     20 S          62.1492   88.3246   11.4401 S.O2    1  UNL1        0.0763
     21 O          63.0349   87.4387   10.6150 O.2     1  UNL1       -0.1497
     22 O          61.2635   89.2104   12.2652 O.2     1  UNL1       -0.1497
     23 C          61.2617   88.5447   10.2510 C.ar    1  UNL1        0.1213
     24 C          60.9102   89.9394    9.8254 C.ar    1  UNL1        0.0230
     25 C          60.0226   90.1595    8.6364 C.ar    1  UNL1        0.0379
     26 C          59.4865   88.9848    7.8730 C.ar    1  UNL1        0.1347
     27 C          59.8380   87.5900    8.2986 C.ar    1  UNL1        0.0095
     28 C          59.3019   86.4154    7.5352 C.3     1  UNL1        0.0339
     29 C          60.7256   87.3699    9.4876 C.ar    1  UNL1       -0.0040
     30 C          61.0770   85.9752    9.9132 C.3     1  UNL1        0.0322
     31 O          58.5990   89.2049    6.6839 O.3     1  UNL1       -0.4739
     32 C          58.8990   90.3135    5.7190 C.3     1  UNL1        0.2020
     33 C          60.3107   90.5613    5.2768 C.3     1  UNL1        0.0536
     34 C          57.7873   91.1743    5.1964 C.2     1  UNL1        0.0900
     35 O          58.1035   92.4186    4.4206 O.co2   1  UNL1       -0.5455
     36 O          56.3594   90.7908    5.4494 O.co2   1  UNL1       -0.5455
     37 C          63.2804   86.7139   13.1360 C.3     1  UNL1        0.1159
     38 C          64.2999   86.4750   14.2101 C.3     1  UNL1        0.0234
     39 C          63.4892   85.9560   16.6231 C.3     1  UNL1        0.0001
     40 C          64.0211   85.4852   15.3020 C.3     1  UNL1        0.0018
@<TRIPOS>UNITY_ATOM_ATTR
35 1
charge -1
@<TRIPOS>BOND
     1    39    40    1
     2    40    38    1
     3    38    37    1
     4    37     1    1
     5     1     2    1
     6     2     3   ar
     7     3     4   ar
     8     4     5   ar
     9     5     6   ar
    10     6     9    1
    11     9    10   ar
    12    10    11   ar
    13    11    12   ar
    14    12    15    1
    15    15    16    1
    16    16    17    1
    17    16    18    1
    18    16    19    1
    19    12    13   ar
    20    13    14   ar
    21     6     7   ar
    22     7     8    1
    23     1    20    1
    24    20    21    2
    25    20    22    2
    26    20    23    1
    27    23    24   ar
    28    24    25   ar
    29    25    26   ar
    30    26    31    1
    31    31    32    1
    32    32    33    1
    33    32    34    1
    34    34    35   ar
    35    34    36   ar
    36    26    27   ar
    37    27    28    1
    38    27    29   ar
    39    29    30    1
    40     7     2   ar
    41    29    23   ar
    42    14     9   ar
@<TRIPOS>MOLECULE
*****
 40 42 0 0 0
SMALL
GASTEIGER

@<TRIPOS>ATOM
      1 N          63.6810   88.2547   14.7259 N.pl3   1  UNL1       -0.1898
      2 C          64.4201   86.9556   14.5982 C.ar    1  UNL1        0.0793
      3 C          65.6940   86.7394   15.3600 C.ar    1  UNL1        0.0170
      4 C          66.4329   85.4403   15.2323 C.ar    1  UNL1        0.0014
      5 C          65.8980   84.3575   14.3428 C.ar    1  UNL1        0.0009
      6 C          64.6240   84.5737   13.5810 C.ar    1  UNL1        0.0118
      7 C          63.8851   85.8727   13.7087 C.ar    1  UNL1        0.0725
      8 CL         62.6111   86.0890   12.9469 Cl      1  UNL1       -0.0809
      9 C          64.0891   83.4908   12.6915 C.ar    1  UNL1        0.0011
     10 C          64.6118   83.3420   11.2935 C.ar    1  UNL1        0.0031
     11 C          64.0769   82.2591   10.4040 C.ar    1  UNL1        0.0372
     12 C          63.0191   81.3251   10.9125 C.ar    1  UNL1        0.1468
     13 C          62.4964   81.4739   12.3105 C.ar    1  UNL1        0.0372
     14 C          63.0313   82.5567   13.2000 C.ar    1  UNL1        0.0031
     15 O          62.4842   80.2422   10.0230 O.3     1  UNL1       -0.4045
     16 C          62.9163   78.8207   10.2289 C.3     1  UNL1        0.5753
     17 F          63.3484   77.3990   10.4349 F       1  UNL1       -0.1328
     18 F          63.4400   78.7763    8.8241 F       1  UNL1       -0.1328
     19 F          62.3925   78.8650   11.6338 F       1  UNL1       -0.1328
     20 S          64.0392   89.4115   13.8407 S.O2    1  UNL1        0.0763
     21 O          62.7390   89.2544   13.1094 O.2     1  UNL1       -0.1497
     22 O          65.3394   89.5685   14.5720 O.2     1  UNL1       -0.1497
     23 C          64.3974   90.5682   12.9555 C.ar    1  UNL1        0.1213
     24 C          63.9318   90.5939   11.5298 C.ar    1  UNL1        0.0230
     25 C          64.2900   91.7507   10.6446 C.ar    1  UNL1        0.0379
     26 C          65.1138   92.8817   11.1851 C.ar    1  UNL1        0.1347
     27 C          65.5794   92.8561   12.6108 C.ar    1  UNL1        0.0095
     28 C          66.4031   93.9871   13.1512 C.3     1  UNL1        0.0339
     29 C          65.2212   91.6993   13.4960 C.ar    1  UNL1       -0.0040
     30 C          65.6868   91.6736   14.9217 C.3     1  UNL1        0.0322
     31 O          65.4720   94.0385   10.2999 O.3     1  UNL1       -0.4739
     32 C          66.8968   94.2497    9.8815 C.3     1  UNL1        0.2020
     33 C          67.4167   95.6399    9.6648 C.3     1  UNL1        0.0536
     34 C          67.8019   93.0706    9.6798 C.2     1  UNL1        0.0900
     35 O          68.2254   92.6784    8.2953 O.co2   1  UNL1       -0.5455
     36 O          68.2835   92.2837   10.8625 O.co2   1  UNL1       -0.5455
     37 C          62.5839   88.3970   15.7388 C.3     1  UNL1        0.1159
     38 C          62.8900   88.2579   17.2007 C.3     1  UNL1        0.0234
     39 C          62.3250   85.7250   17.0780 C.3     1  UNL1        0.0001
     40 C          62.7563   86.9228   17.8712 C.3     1  UNL1        0.0018
@<TRIPOS>UNITY_ATOM_ATTR
35 1
charge -1
@<TRIPOS>BOND
     1    39    40    1
     2    40    38    1
     3    38    37    1
     4    37     1    1
     5     1     2    1
     6     2     3   ar
     7     3     4   ar
     8     4     5   ar
     9     5     6   ar
    10     6     9    1
    11     9    10   ar
    12    10    11   ar
    13    11    12   ar
    14    12    15    1
    15    15    16    1
    16    16    17    1
    17    16    18    1
    18    16    19    1
    19    12    13   ar
    20    13    14   ar
    21     6     7   ar
    22     7     8    1
    23     1    20    1
    24    20    21    2
    25    20    22    2
    26    20    23    1
    27    23    24   ar
    28    24    25   ar
    29    25    26   ar
    30    26    31    1
    31    31    32    1
    32    32    33    1
    33    32    34    1
    34    34    35   ar
    35    34    36   ar
    36    26    27   ar
    37    27    28    1
    38    27    29   ar
    39    29    30    1
    40     7     2   ar
    41    29    23   ar
    42    14     9   ar
@<TRIPOS>MOLECULE
*****
 40 42 0 0 0
SMALL
GASTEIGER

@<TRIPOS>ATOM
      1 N          63.3241   90.1471   13.2890 N.pl3   1  UNL1       -0.1898
      2 C          63.2965   89.1679   14.4251 C.ar    1  UNL1        0.0793
      3 C          63.1607   89.6595   15.8357 C.ar    1  UNL1        0.0170
      4 C          63.1331   88.6803   16.9717 C.ar    1  UNL1        0.0014
      5 C          63.2414   87.2097   16.6970 C.ar    1  UNL1        0.0009
      6 C          63.3772   86.7181   15.2864 C.ar    1  UNL1        0.0118
      7 C          63.4048   87.6973   14.1504 C.ar    1  UNL1        0.0725
      8 CL         63.5407   87.2058   12.7397 Cl      1  UNL1       -0.0809
      9 C          63.4855   85.2475   15.0118 C.ar    1  UNL1        0.0011
     10 C          64.7999   84.6572   14.5947 C.ar    1  UNL1        0.0031
     11 C          64.9082   83.1865   14.3200 C.ar    1  UNL1        0.0372
     12 C          63.7021   82.3062   14.4625 C.ar    1  UNL1        0.1468
     13 C          62.3878   82.8965   14.8795 C.ar    1  UNL1        0.0372
     14 C          62.2795   84.3671   15.1542 C.ar    1  UNL1        0.0031
     15 O          63.8104   80.8355   14.1878 O.3     1  UNL1       -0.4045
     16 C          63.0968   80.2376   13.0117 C.3     1  UNL1        0.5753
     17 F          62.3832   79.6398   11.8355 F       1  UNL1       -0.1328
     18 F          62.4452   79.2347   13.9169 F       1  UNL1       -0.1328
     19 F          63.7485   81.2406   12.1065 F       1  UNL1       -0.1328
     20 S          62.4378   89.9381   12.0971 S.O2    1  UNL1        0.0763
     21 O          61.2672   89.7117   13.0072 O.2     1  UNL1       -0.1497
     22 O          63.6085   90.1644   11.1869 O.2     1  UNL1       -0.1497
     23 C          61.5515   89.7290   10.9051 C.ar    1  UNL1        0.1213
     24 C          60.6528   90.8344   10.4357 C.ar    1  UNL1        0.0230
     25 C          59.7665   90.6254    9.2437 C.ar    1  UNL1        0.0379
     26 C          59.7789   89.3109    8.5212 C.ar    1  UNL1        0.1347
     27 C          60.6776   88.2055    8.9906 C.ar    1  UNL1        0.0095
     28 C          60.6900   86.8910    8.2681 C.3     1  UNL1        0.0339
     29 C          61.5639   88.4145   10.1826 C.ar    1  UNL1       -0.0040
     30 C          62.4626   87.3091   10.6521 C.3     1  UNL1        0.0322
     31 O          58.8926   89.1019    7.3292 O.3     1  UNL1       -0.4739
     32 C          58.9861   90.0285    6.1534 C.3     1  UNL1        0.2020
     33 C          60.3137   90.2844    5.5039 C.3     1  UNL1        0.0536
     34 C          57.7519   90.6992    5.6271 C.2     1  UNL1        0.0900
     35 O          57.8708   91.9377    4.7891 O.co2   1  UNL1       -0.5455
     36 O          56.3989   90.1315    5.9387 O.co2   1  UNL1       -0.5455
     37 C          64.2380   91.3352   13.3450 C.3     1  UNL1        0.1159
     38 C          65.6524   91.1719   13.8170 C.3     1  UNL1        0.0234
     39 C          67.6098   91.9924   15.3154 C.3     1  UNL1        0.0001
     40 C          66.1444   91.9560   14.9974 C.3     1  UNL1        0.0018
@<TRIPOS>UNITY_ATOM_ATTR
35 1
charge -1
@<TRIPOS>BOND
     1    39    40    1
     2    40    38    1
     3    38    37    1
     4    37     1    1
     5     1     2    1
     6     2     3   ar
     7     3     4   ar
     8     4     5   ar
     9     5     6   ar
    10     6     9    1
    11     9    10   ar
    12    10    11   ar
    13    11    12   ar
    14    12    15    1
    15    15    16    1
    16    16    17    1
    17    16    18    1
    18    16    19    1
    19    12    13   ar
    20    13    14   ar
    21     6     7   ar
    22     7     8    1
    23     1    20    1
    24    20    21    2
    25    20    22    2
    26    20    23    1
    27    23    24   ar
    28    24    25   ar
    29    25    26   ar
    30    26    31    1
    31    31    32    1
    32    32    33    1
    33    32    34    1
    34    34    35   ar
    35    34    36   ar
    36    26    27   ar
    37    27    28    1
    38    27    29   ar
    39    29    30    1
    40     7     2   ar
    41    29    23   ar
    42    14     9   ar
@<TRIPOS>MOLECULE
*****
 40 42 0 0 0
SMALL
GASTEIGER

@<TRIPOS>ATOM
      1 N          62.6921   85.3963   11.2937 N.pl3   1  UNL1       -0.1898
      2 C          63.0888   85.7365   12.6997 C.ar    1  UNL1        0.0793
      3 C          63.0792   84.6750   13.7594 C.ar    1  UNL1        0.0170
      4 C          63.4759   85.0153   15.1654 C.ar    1  UNL1        0.0014
      5 C          63.8822   86.4171   15.5117 C.ar    1  UNL1        0.0009
      6 C          63.8918   87.4786   14.4520 C.ar    1  UNL1        0.0118
      7 C          63.4951   87.1383   13.0460 C.ar    1  UNL1        0.0725
      8 CL         63.5047   88.1999   11.9862 Cl      1  UNL1       -0.0809
      9 C          64.2981   88.8804   14.7983 C.ar    1  UNL1        0.0011
     10 C          63.5364   89.6467   15.8387 C.ar    1  UNL1        0.0031
     11 C          63.9427   91.0485   16.1850 C.ar    1  UNL1        0.0372
     12 C          65.1107   91.6840   15.4908 C.ar    1  UNL1        0.1468
     13 C          65.8724   90.9176   14.4504 C.ar    1  UNL1        0.0372
     14 C          65.4661   89.5158   14.1042 C.ar    1  UNL1        0.0031
     15 O          65.5170   93.0857   15.8371 O.3     1  UNL1       -0.4045
     16 C          66.9337   93.5303   15.6240 C.3     1  UNL1        0.5753
     17 F          68.3504   93.9749   15.4110 F       1  UNL1       -0.1328
     18 F          66.5012   94.3398   14.4377 F       1  UNL1       -0.1328
     19 F          67.3662   92.7208   16.8104 F       1  UNL1       -0.1328
     20 S          61.8956   86.3742   10.4817 S.O2    1  UNL1        0.0763
     21 O          62.8916   86.2590    9.3660 O.2     1  UNL1       -0.1497
     22 O          60.8996   86.4893   11.5974 O.2     1  UNL1       -0.1497
     23 C          61.0991   87.3520    9.6697 C.ar    1  UNL1        0.1213
     24 C          61.0319   88.7920   10.0842 C.ar    1  UNL1        0.0230
     25 C          60.2353   89.7699    9.2723 C.ar    1  UNL1        0.0379
     26 C          59.5060   89.3077    8.0457 C.ar    1  UNL1        0.1347
     27 C          59.5731   87.8677    7.6311 C.ar    1  UNL1        0.0095
     28 C          58.8438   87.4056    6.4046 C.3     1  UNL1        0.0339
     29 C          60.3697   86.8898    8.4431 C.ar    1  UNL1       -0.0040
     30 C          60.4369   85.4499    8.0286 C.3     1  UNL1        0.0322
     31 O          58.7095   90.2856    7.2337 O.3     1  UNL1       -0.4739
     32 C          59.2314   90.7629    5.9110 C.3     1  UNL1        0.2020
     33 C          60.6526   90.4838    5.5206 C.3     1  UNL1        0.0536
     34 C          58.3323   91.5194    4.9786 C.2     1  UNL1        0.0900
     35 O          58.9205   92.3246    3.8580 O.co2   1  UNL1       -0.5455
     36 O          56.8450   91.4707    5.1668 O.co2   1  UNL1       -0.5455
     37 C          63.0920   84.0783   10.6997 C.3     1  UNL1        0.1159
     38 C          63.7561   83.0406   11.5553 C.3     1  UNL1        0.0234
     39 C          62.4142   81.2190   12.8324 C.3     1  UNL1        0.0001
     40 C          63.1916   81.6526   11.6251 C.3     1  UNL1        0.0018
@<TRIPOS>UNITY_ATOM_ATTR
35 1
charge -1
@<TRIPOS>BOND
     1    39    40    1
     2    40    38    1
     3    38    37    1
     4    37     1    1
     5     1     2    1
     6     2     3   ar
     7     3     4   ar
     8     4     5   ar
     9     5     6   ar
    10     6     9    1
    11     9    10   ar
    12    10    11   ar
    13    11    12   ar
    14    12    15    1
    15    15    16    1
    16    16    17    1
    17    16    18    1
    18    16    19    1
    19    12    13   ar
    20    13    14   ar
    21     6     7   ar
    22     7     8    1
    23     1    20    1
    24    20    21    2
    25    20    22    2
    26    20    23    1
    27    23    24   ar
    28    24    25   ar
    29    25    26   ar
    30    26    31    1
    31    31    32    1
    32    32    33    1
    33    32    34    1
    34    34    35   ar
    35    34    36   ar
    36    26    27   ar
    37    27    28    1
    38    27    29   ar
    39    29    30    1
    40     7     2   ar
    41    29    23   ar
    42    14     9   ar
@<TRIPOS>MOLECULE
*****
 40 42 0 0 0
SMALL
GASTEIGER

@<TRIPOS>ATOM
      1 N          61.6729   88.5530   10.4586 N.pl3   1  UNL1       -0.1898
      2 C          62.2241   87.2312   10.0123 C.ar    1  UNL1        0.0793
      3 C          62.8041   87.0865    8.6366 C.ar    1  UNL1        0.0170
      4 C          63.3552   85.7647    8.1903 C.ar    1  UNL1        0.0014
      5 C          63.3263   84.5877    9.1197 C.ar    1  UNL1        0.0009
      6 C          62.7463   84.7325   10.4954 C.ar    1  UNL1        0.0118
      7 C          62.1952   86.0542   10.9417 C.ar    1  UNL1        0.0725
      8 CL         61.6152   86.1990   12.3175 Cl      1  UNL1       -0.0809
      9 C          62.7174   83.5555   11.4248 C.ar    1  UNL1        0.0011
     10 C          62.6763   83.7722   12.9085 C.ar    1  UNL1        0.0031
     11 C          62.6474   82.5952   13.8379 C.ar    1  UNL1        0.0372
     12 C          62.6597   81.2014   13.2837 C.ar    1  UNL1        0.1468
     13 C          62.7008   80.9847   11.8000 C.ar    1  UNL1        0.0372
     14 C          62.7297   82.1617   10.8706 C.ar    1  UNL1        0.0031
     15 O          62.6308   80.0244   14.2131 O.3     1  UNL1       -0.4045
     16 C          61.4120   79.1528   14.2819 C.3     1  UNL1        0.5753
     17 F          60.1932   78.2811   14.3507 F       1  UNL1       -0.1328
     18 F          60.5464   80.3724   14.3979 F       1  UNL1       -0.1328
     19 F          62.2776   77.9333   14.1659 F       1  UNL1       -0.1328
     20 S          62.6053   89.6751   10.8073 S.O2    1  UNL1        0.0763
     21 O          63.4186   88.7376   11.6496 O.2     1  UNL1       -0.1497
     22 O          61.7919   90.6127    9.9650 O.2     1  UNL1       -0.1497
     23 C          63.5376   90.7973   11.1559 C.ar    1  UNL1        0.1213
     24 C          63.9136   91.8106   10.1159 C.ar    1  UNL1        0.0230
     25 C          64.8459   92.9327   10.4645 C.ar    1  UNL1        0.0379
     26 C          65.4023   93.0415   11.8532 C.ar    1  UNL1        0.1347
     27 C          65.0263   92.0282   12.8934 C.ar    1  UNL1        0.0095
     28 C          65.5826   92.1370   14.2821 C.3     1  UNL1        0.0339
     29 C          64.0940   90.9061   12.5447 C.ar    1  UNL1       -0.0040
     30 C          63.7180   89.8928   13.5848 C.3     1  UNL1        0.0322
     31 O          66.3346   94.1637   12.2019 O.3     1  UNL1       -0.4739
     32 C          66.5422   95.2935   11.2373 C.3     1  UNL1        0.2020
     33 C          66.0957   96.6793   11.5981 C.3     1  UNL1        0.0536
     34 C          67.1963   95.0375    9.9119 C.2     1  UNL1        0.0900
     35 O          66.5895   95.5910    8.6567 O.co2   1  UNL1       -0.5455
     36 O          68.4571   94.2280    9.8416 O.co2   1  UNL1       -0.5455
     37 C          60.1895   88.7526   10.5563 C.3     1  UNL1        0.1159
     38 C          59.2583   87.8165    9.8445 C.3     1  UNL1        0.0234
     39 C          59.3553   86.4698    7.6249 C.3     1  UNL1        0.0001
     40 C          59.2331   87.7798    8.3452 C.3     1  UNL1        0.0018
@<TRIPOS>UNITY_ATOM_ATTR
35 1
charge -1
@<TRIPOS>BOND
     1    39    40    1
     2    40    38    1
     3    38    37    1
     4    37     1    1
     5     1     2    1
     6     2     3   ar
     7     3     4   ar
     8     4     5   ar
     9     5     6   ar
    10     6     9    1
    11     9    10   ar
    12    10    11   ar
    13    11    12   ar
    14    12    15    1
    15    15    16    1
    16    16    17    1
    17    16    18    1
    18    16    19    1
    19    12    13   ar
    20    13    14   ar
    21     6     7   ar
    22     7     8    1
    23     1    20    1
    24    20    21    2
    25    20    22    2
    26    20    23    1
    27    23    24   ar
    28    24    25   ar
    29    25    26   ar
    30    26    31    1
    31    31    32    1
    32    32    33    1
    33    32    34    1
    34    34    35   ar
    35    34    36   ar
    36    26    27   ar
    37    27    28    1
    38    27    29   ar
    39    29    30    1
    40     7     2   ar
    41    29    23   ar
    42    14     9   ar
