@<TRIPOS>MOLECULE
*****
 27 30 0 0 0
SMALL
GASTEIGER

@<TRIPOS>ATOM
      1 C          64.3420   90.7988   14.5777 C.3     1  UNL1        0.1331
      2 C          64.4851   89.3062   14.6199 C.3     1  UNL1        0.0424
      3 C          63.6603   88.7299   13.5075 C.3     1  UNL1        0.0752
      4 C          63.0074   89.8663   12.7778 C.3     1  UNL1        0.0851
      5 N          63.4288   91.1450   13.4392 N.3     1  UNL1       -0.2902
      6 H          62.6088   91.6392   13.7911 H       1  UNL1        0.1237
      7 O          64.2200   92.3567   16.6533 O.2     1  UNL1       -0.2734
      8 C          64.9972   91.7740   15.5103 C.2     1  UNL1        0.2401
      9 N          66.4295   92.1666   15.3000 N.am    1  UNL1       -0.2730
     10 C          67.2144   93.1250   16.1457 C.3     1  UNL1        0.0993
     11 C          68.5984   93.2204   15.5754 C.3     1  UNL1        0.0898
     12 C          68.6690   92.3209   14.3770 C.3     1  UNL1        0.2835
     13 F          70.0861   92.8053   14.2930 F       1  UNL1       -0.2024
     14 F          69.0356   91.5227   13.1611 F       1  UNL1       -0.2024
     15 C          67.3284   91.6696   14.2068 C.3     1  UNL1        0.1601
     16 N          63.5140   87.2730   13.1818 N.3     1  UNL1       -0.2697
     17 C          62.7689   86.8509   11.9503 C.3     1  UNL1        0.0939
     18 C          62.6227   85.3940   11.6247 C.3     1  UNL1        0.1109
     19 N          63.2214   84.3592   12.5307 N.pl3   1  UNL1       -0.2753
     20 C          63.9664   84.7813   13.7623 C.3     1  UNL1        0.1109
     21 C          64.1127   86.2382   14.0878 C.3     1  UNL1        0.0939
     22 C          63.0751   82.9022   12.2051 C.ar    1  UNL1        0.2203
     23 N          63.3984   82.4055   10.8272 N.ar    1  UNL1       -0.2121
     24 C          63.2521   80.9486   10.5016 C.ar    1  UNL1        0.1034
     25 C          62.7824   79.9884   11.5539 C.ar    1  UNL1        0.0414
     26 C          62.4590   80.4852   12.9319 C.ar    1  UNL1        0.1034
     27 N          62.6053   81.9421   13.2574 N.ar    1  UNL1       -0.2121
@<TRIPOS>BOND
     1     7     8    2
     2     1     8    1
     3     1     2    1
     4     2     3    1
     5     3    16    1
     6    16    17    1
     7    17    18    1
     8    18    19    1
     9    19    22    1
    10    22    23   ar
    11    23    24   ar
    12    24    25   ar
    13    25    26   ar
    14    26    27   ar
    15    19    20    1
    16    20    21    1
    17     3     4    1
    18     4     5    1
    19     8     9   am
    20     9    10    1
    21    10    11    1
    22    11    12    1
    23    12    13    1
    24    12    14    1
    25    12    15    1
    26     5     1    1
    27    15     9    1
    28    21    16    1
    29    27    22   ar
    30     5     6    1
@<TRIPOS>MOLECULE
*****
 27 30 0 0 0
SMALL
GASTEIGER

@<TRIPOS>ATOM
      1 C          64.8458   90.9407   15.2907 C.3     1  UNL1        0.1331
      2 C          64.9834   89.6333   14.5684 C.3     1  UNL1        0.0424
      3 C          63.9650   88.6850   15.1284 C.3     1  UNL1        0.0752
      4 C          63.1981   89.4063   16.1968 C.3     1  UNL1        0.0851
      5 N          63.7424   90.8004   16.2971 N.3     1  UNL1       -0.2902
      6 H          64.1072   90.9629   17.2357 H       1  UNL1        0.1237
      7 O          66.3813   92.8336   16.1904 O.2     1  UNL1       -0.2734
      8 C          65.6674   92.1722   15.0489 C.2     1  UNL1        0.2401
      9 N          65.7751   92.7424   13.6657 N.am    1  UNL1       -0.2730
     10 C          66.5556   93.9616   13.2730 C.3     1  UNL1        0.0993
     11 C          66.3841   94.1662   11.7970 C.3     1  UNL1        0.0898
     12 C          65.4977   93.0734   11.2774 C.3     1  UNL1        0.2835
     13 F          65.6975   93.7547    9.9561 F       1  UNL1       -0.2024
     14 F          64.6529   92.1229   10.4817 F       1  UNL1       -0.2024
     15 C          65.1213   92.1934   12.4325 C.3     1  UNL1        0.1601
     16 N          63.7511   87.2646   14.6960 N.3     1  UNL1       -0.2697
     17 C          63.8072   86.1567   15.7056 C.3     1  UNL1        0.0939
     18 C          63.5934   84.7364   15.2731 C.3     1  UNL1        0.1109
     19 N          63.3234   84.4241   13.8311 N.pl3   1  UNL1       -0.2753
     20 C          63.2673   85.5320   12.8215 C.3     1  UNL1        0.1109
     21 C          63.4812   86.9522   13.2539 C.3     1  UNL1        0.0939
     22 C          63.1095   83.0037   13.3986 C.ar    1  UNL1        0.2203
     23 N          63.1884   82.6423   11.9450 N.ar    1  UNL1       -0.2121
     24 C          62.9745   81.2220   11.5126 C.ar    1  UNL1        0.1034
     25 C          62.6817   80.1631   12.5338 C.ar    1  UNL1        0.0414
     26 C          62.6028   80.5245   13.9876 C.ar    1  UNL1        0.1034
     27 N          62.8167   81.9448   14.4199 N.ar    1  UNL1       -0.2121
@<TRIPOS>BOND
     1     7     8    2
     2     1     8    1
     3     1     2    1
     4     2     3    1
     5     3    16    1
     6    16    17    1
     7    17    18    1
     8    18    19    1
     9    19    22    1
    10    22    23   ar
    11    23    24   ar
    12    24    25   ar
    13    25    26   ar
    14    26    27   ar
    15    19    20    1
    16    20    21    1
    17     3     4    1
    18     4     5    1
    19     8     9   am
    20     9    10    1
    21    10    11    1
    22    11    12    1
    23    12    13    1
    24    12    14    1
    25    12    15    1
    26     5     1    1
    27    15     9    1
    28    21    16    1
    29    27    22   ar
    30     5     6    1
@<TRIPOS>MOLECULE
*****
 27 30 0 0 0
SMALL
GASTEIGER

@<TRIPOS>ATOM
      1 C          60.3653   88.8484    9.6508 C.3     1  UNL1        0.1331
      2 C          61.7851   89.0852   10.0729 C.3     1  UNL1        0.0424
      3 C          61.7709   90.0284   11.2391 C.3     1  UNL1        0.0752
      4 C          60.3423   90.3747   11.5378 C.3     1  UNL1        0.0851
      5 N          59.4736   89.6454   10.5562 N.3     1  UNL1       -0.2902
      6 H          58.9332   90.3148   10.0082 H       1  UNL1        0.1237
      7 O          58.6392   88.2739    7.7959 O.2     1  UNL1       -0.2734
      8 C          59.9161   87.9691    8.5216 C.2     1  UNL1        0.2401
      9 N          60.7438   86.7850    8.1181 N.am    1  UNL1       -0.2730
     10 C          60.4240   85.8207    7.0146 C.3     1  UNL1        0.0993
     11 C          61.5191   84.7970    6.9618 C.3     1  UNL1        0.0898
     12 C          62.5157   85.1287    8.0327 C.3     1  UNL1        0.2835
     13 F          63.2347   83.9164    7.5194 F       1  UNL1       -0.2024
     14 F          63.6626   85.2070    8.9963 F       1  UNL1       -0.2024
     15 C          62.0365   86.3574    8.7473 C.3     1  UNL1        0.1601
     16 N          62.9740   90.5363   11.9771 N.3     1  UNL1       -0.2697
     17 C          63.2622   90.0500   13.3664 C.3     1  UNL1        0.0939
     18 C          64.4653   90.5579   14.1043 C.3     1  UNL1        0.1109
     19 N          65.3803   91.5520   13.4529 N.pl3   1  UNL1       -0.2753
     20 C          65.0921   92.0383   12.0635 C.3     1  UNL1        0.1109
     21 C          63.8890   91.5305   11.3256 C.3     1  UNL1        0.0939
     22 C          66.5834   92.0599   14.1909 C.ar    1  UNL1        0.2203
     23 N          66.4297   92.6446   15.5636 N.ar    1  UNL1       -0.2121
     24 C          67.6328   93.1524   16.3016 C.ar    1  UNL1        0.1034
     25 C          68.9897   93.0756   15.6668 C.ar    1  UNL1        0.0414
     26 C          69.1434   92.4909   14.2939 C.ar    1  UNL1        0.1034
     27 N          67.9403   91.9831   13.5560 N.ar    1  UNL1       -0.2121
@<TRIPOS>BOND
     1     7     8    2
     2     1     8    1
     3     1     2    1
     4     2     3    1
     5     3    16    1
     6    16    17    1
     7    17    18    1
     8    18    19    1
     9    19    22    1
    10    22    23   ar
    11    23    24   ar
    12    24    25   ar
    13    25    26   ar
    14    26    27   ar
    15    19    20    1
    16    20    21    1
    17     3     4    1
    18     4     5    1
    19     8     9   am
    20     9    10    1
    21    10    11    1
    22    11    12    1
    23    12    13    1
    24    12    14    1
    25    12    15    1
    26     5     1    1
    27    15     9    1
    28    21    16    1
    29    27    22   ar
    30     5     6    1
@<TRIPOS>MOLECULE
*****
 27 30 0 0 0
SMALL
GASTEIGER

@<TRIPOS>ATOM
      1 C          64.0737   90.7858   13.1861 C.3     1  UNL1        0.1331
      2 C          64.2934   89.3288   13.4672 C.3     1  UNL1        0.0424
      3 C          63.2907   88.5469   12.6716 C.3     1  UNL1        0.0752
      4 C          62.4512   89.5206   11.8987 C.3     1  UNL1        0.0851
      5 N          62.9351   90.9043   12.2167 N.3     1  UNL1       -0.2902
      6 H          62.1798   91.4477   12.6346 H       1  UNL1        0.1237
      7 O          64.9698   92.0685   15.2602 O.2     1  UNL1       -0.2734
      8 C          64.8554   91.9244   13.7715 C.2     1  UNL1        0.2401
      9 N          65.5226   92.9188   12.8683 N.am    1  UNL1       -0.2730
     10 C          66.3333   94.1025   13.3061 C.3     1  UNL1        0.0993
     11 C          66.8080   94.8194   12.0771 C.3     1  UNL1        0.0898
     12 C          66.2907   94.0789   10.8796 C.3     1  UNL1        0.2835
     13 F          67.0083   95.1454   10.1065 F       1  UNL1       -0.2024
     14 F          65.9233   93.5613    9.5205 F       1  UNL1       -0.2024
     15 C          65.4962   92.9042   11.3686 C.3     1  UNL1        0.1601
     16 N          63.1517   87.0534   12.6523 N.3     1  UNL1       -0.2697
     17 C          62.3976   86.3847   11.5414 C.3     1  UNL1        0.0939
     18 C          62.2587   84.8913   11.5221 C.3     1  UNL1        0.1109
     19 N          62.8739   84.0666   12.6136 N.pl3   1  UNL1       -0.2753
     20 C          63.6280   84.7354   13.7245 C.3     1  UNL1        0.1109
     21 C          63.7669   86.2287   13.7438 C.3     1  UNL1        0.0939
     22 C          62.7349   82.5731   12.5942 C.ar    1  UNL1        0.2203
     23 N          63.1453   81.7974   11.3778 N.ar    1  UNL1       -0.2121
     24 C          63.0063   80.3040   11.3584 C.ar    1  UNL1        0.1034
     25 C          62.4570   79.5863   12.5556 C.ar    1  UNL1        0.0414
     26 C          62.0465   80.3621   13.7721 C.ar    1  UNL1        0.1034
     27 N          62.1855   81.8555   13.7914 N.ar    1  UNL1       -0.2121
@<TRIPOS>BOND
     1     7     8    2
     2     1     8    1
     3     1     2    1
     4     2     3    1
     5     3    16    1
     6    16    17    1
     7    17    18    1
     8    18    19    1
     9    19    22    1
    10    22    23   ar
    11    23    24   ar
    12    24    25   ar
    13    25    26   ar
    14    26    27   ar
    15    19    20    1
    16    20    21    1
    17     3     4    1
    18     4     5    1
    19     8     9   am
    20     9    10    1
    21    10    11    1
    22    11    12    1
    23    12    13    1
    24    12    14    1
    25    12    15    1
    26     5     1    1
    27    15     9    1
    28    21    16    1
    29    27    22   ar
    30     5     6    1
@<TRIPOS>MOLECULE
*****
 27 30 0 0 0
SMALL
GASTEIGER

@<TRIPOS>ATOM
      1 C          63.7773   91.1459   11.8126 C.3     1  UNL1        0.1331
      2 C          64.1571   89.7140   12.0477 C.3     1  UNL1        0.0424
      3 C          62.9054   88.8887   12.0007 C.3     1  UNL1        0.0752
      4 C          61.7520   89.8106   11.7366 C.3     1  UNL1        0.0851
      5 N          62.2908   91.2057   11.6203 N.3     1  UNL1       -0.2902
      6 H          61.8726   91.7991   12.3369 H       1  UNL1        0.1237
      7 O          64.8940   93.0961   10.5088 O.2     1  UNL1       -0.2734
      8 C          64.7186   92.3132   11.7762 C.2     1  UNL1        0.2401
      9 N          65.4846   92.6977   13.0072 N.am    1  UNL1       -0.2730
     10 C          66.4564   93.8345   13.1218 C.3     1  UNL1        0.0993
     11 C          66.9857   93.8522   14.5252 C.3     1  UNL1        0.0898
     12 C          66.3410   92.7263   15.2780 C.3     1  UNL1        0.2835
     13 F          67.1702   93.2264   16.4236 F       1  UNL1       -0.2024
     14 F          65.8696   91.7049   16.2703 F       1  UNL1       -0.2024
     15 C          65.4133   92.0128   14.3398 C.3     1  UNL1        0.1601
     16 N          62.8218   87.4024   12.1855 N.3     1  UNL1       -0.2697
     17 C          63.5325   86.7481   13.3329 C.3     1  UNL1        0.0939
     18 C          63.4489   85.2619   13.5175 C.3     1  UNL1        0.1109
     19 N          62.6544   84.4300   12.5548 N.pl3   1  UNL1       -0.2753
     20 C          61.9436   85.0844   11.4074 C.3     1  UNL1        0.1109
     21 C          62.0273   86.5706   11.2227 C.3     1  UNL1        0.0939
     22 C          62.5708   82.9438   12.7395 C.ar    1  UNL1        0.2203
     23 N          62.9789   82.0254   11.6260 N.ar    1  UNL1       -0.2121
     24 C          62.8953   80.5392   11.8107 C.ar    1  UNL1        0.1034
     25 C          62.4035   79.9713   13.1090 C.ar    1  UNL1        0.0414
     26 C          61.9953   80.8897   14.2226 C.ar    1  UNL1        0.1034
     27 N          62.0790   82.3759   14.0378 N.ar    1  UNL1       -0.2121
@<TRIPOS>BOND
     1     7     8    2
     2     1     8    1
     3     1     2    1
     4     2     3    1
     5     3    16    1
     6    16    17    1
     7    17    18    1
     8    18    19    1
     9    19    22    1
    10    22    23   ar
    11    23    24   ar
    12    24    25   ar
    13    25    26   ar
    14    26    27   ar
    15    19    20    1
    16    20    21    1
    17     3     4    1
    18     4     5    1
    19     8     9   am
    20     9    10    1
    21    10    11    1
    22    11    12    1
    23    12    13    1
    24    12    14    1
    25    12    15    1
    26     5     1    1
    27    15     9    1
    28    21    16    1
    29    27    22   ar
    30     5     6    1
@<TRIPOS>MOLECULE
*****
 27 30 0 0 0
SMALL
GASTEIGER

@<TRIPOS>ATOM
      1 C          65.6310   92.6721   13.2255 C.3     1  UNL1        0.1331
      2 C          65.2599   91.3266   12.6760 C.3     1  UNL1        0.0424
      3 C          64.8375   90.4578   13.8235 C.3     1  UNL1        0.0752
      4 C          64.9475   91.2664   15.0821 C.3     1  UNL1        0.0851
      5 N          65.4380   92.6349   14.7126 N.3     1  UNL1       -0.2902
      6 H          66.3240   92.8234   15.1815 H       1  UNL1        0.1237
      7 O          65.8120   95.2426   12.8936 O.2     1  UNL1       -0.2734
      8 C          66.1109   93.8484   12.4279 C.2     1  UNL1        0.2401
      9 N          66.8897   93.6304   11.1646 N.am    1  UNL1       -0.2730
     10 C          67.4321   94.7029   10.2670 C.3     1  UNL1        0.0993
     11 C          68.1405   94.0371    9.1248 C.3     1  UNL1        0.0898
     12 C          68.0360   92.5530    9.3163 C.3     1  UNL1        0.2835
     13 F          68.8215   92.4914    8.0399 F       1  UNL1       -0.2024
     14 F          68.0956   91.0561    9.2412 F       1  UNL1       -0.2024
     15 C          67.2630   92.3017   10.5771 C.3     1  UNL1        0.1601
     16 N          64.3845   89.0309   13.7290 N.3     1  UNL1       -0.2697
     17 C          64.7808   88.0464   14.7890 C.3     1  UNL1        0.0939
     18 C          64.3278   86.6196   14.6944 C.3     1  UNL1        0.1109
     19 N          63.4785   86.1773   13.5398 N.pl3   1  UNL1       -0.2753
     20 C          63.0822   87.1618   12.4798 C.3     1  UNL1        0.1109
     21 C          63.5352   88.5886   12.5744 C.3     1  UNL1        0.0939
     22 C          63.0255   84.7504   13.4453 C.ar    1  UNL1        0.2203
     23 N          62.5133   84.0438   14.6652 N.ar    1  UNL1       -0.2121
     24 C          62.0603   82.6169   14.5707 C.ar    1  UNL1        0.1034
     25 C          62.1196   81.8967   13.2562 C.ar    1  UNL1        0.0414
     26 C          62.6319   82.6034   12.0363 C.ar    1  UNL1        0.1034
     27 N          63.0849   84.0302   12.1309 N.ar    1  UNL1       -0.2121
@<TRIPOS>BOND
     1     7     8    2
     2     1     8    1
     3     1     2    1
     4     2     3    1
     5     3    16    1
     6    16    17    1
     7    17    18    1
     8    18    19    1
     9    19    22    1
    10    22    23   ar
    11    23    24   ar
    12    24    25   ar
    13    25    26   ar
    14    26    27   ar
    15    19    20    1
    16    20    21    1
    17     3     4    1
    18     4     5    1
    19     8     9   am
    20     9    10    1
    21    10    11    1
    22    11    12    1
    23    12    13    1
    24    12    14    1
    25    12    15    1
    26     5     1    1
    27    15     9    1
    28    21    16    1
    29    27    22   ar
    30     5     6    1
@<TRIPOS>MOLECULE
*****
 27 30 0 0 0
SMALL
GASTEIGER

@<TRIPOS>ATOM
      1 C          59.8799   87.9150    9.1126 C.3     1  UNL1        0.1331
      2 C          60.2618   89.1356    8.3290 C.3     1  UNL1        0.0424
      3 C          59.4587   89.1432    7.0621 C.3     1  UNL1        0.0752
      4 C          58.5805   87.9272    7.0627 C.3     1  UNL1        0.0851
      5 N          58.8407   87.1681    8.3300 N.3     1  UNL1       -0.2902
      6 H          59.1802   86.2319    8.1092 H       1  UNL1        0.1237
      7 O          59.9544   88.1831   11.6957 O.2     1  UNL1       -0.2734
      8 C          60.4390   87.5119   10.4449 C.2     1  UNL1        0.2401
      9 N          61.4826   86.4376   10.5263 N.am    1  UNL1       -0.2730
     10 C          62.1309   85.9314   11.7807 C.3     1  UNL1        0.0993
     11 C          63.1101   84.8619   11.3974 C.3     1  UNL1        0.0898
     12 C          63.0672   84.7070    9.9060 C.3     1  UNL1        0.2835
     13 F          64.1097   83.6548   10.1429 F       1  UNL1       -0.2024
     14 F          63.2421   84.3323    8.4641 F       1  UNL1       -0.2024
     15 C          62.0613   85.6809    9.3677 C.3     1  UNL1        0.1601
     16 N          59.5227   90.1841    5.9838 N.3     1  UNL1       -0.2697
     17 C          58.2697   90.8739    5.5321 C.3     1  UNL1        0.0939
     18 C          58.3336   91.9147    4.4539 C.3     1  UNL1        0.1109
     19 N          59.6506   92.2657    3.8274 N.pl3   1  UNL1       -0.2753
     20 C          60.9036   91.5759    4.2791 C.3     1  UNL1        0.1109
     21 C          60.8396   90.5351    5.3574 C.3     1  UNL1        0.0939
     22 C          59.7145   93.3066    2.7491 C.ar    1  UNL1        0.2203
     23 N          60.1415   94.7055    3.0815 N.ar    1  UNL1       -0.2121
     24 C          60.2054   95.7464    2.0032 C.ar    1  UNL1        0.1034
     25 C          59.8423   95.3882    0.5926 C.ar    1  UNL1        0.0414
     26 C          59.4153   93.9891    0.2603 C.ar    1  UNL1        0.1034
     27 N          59.3514   92.9484    1.3385 N.ar    1  UNL1       -0.2121
@<TRIPOS>BOND
     1     7     8    2
     2     1     8    1
     3     1     2    1
     4     2     3    1
     5     3    16    1
     6    16    17    1
     7    17    18    1
     8    18    19    1
     9    19    22    1
    10    22    23   ar
    11    23    24   ar
    12    24    25   ar
    13    25    26   ar
    14    26    27   ar
    15    19    20    1
    16    20    21    1
    17     3     4    1
    18     4     5    1
    19     8     9   am
    20     9    10    1
    21    10    11    1
    22    11    12    1
    23    12    13    1
    24    12    14    1
    25    12    15    1
    26     5     1    1
    27    15     9    1
    28    21    16    1
    29    27    22   ar
    30     5     6    1
@<TRIPOS>MOLECULE
*****
 27 30 0 0 0
SMALL
GASTEIGER

@<TRIPOS>ATOM
      1 C          59.0587   90.2369    6.1000 C.3     1  UNL1        0.1331
      2 C          60.0578   90.1821    7.2175 C.3     1  UNL1        0.0424
      3 C          59.8889   88.8710    7.9263 C.3     1  UNL1        0.0752
      4 C          58.7854   88.1155    7.2469 C.3     1  UNL1        0.0851
      5 N          58.2723   88.9597    6.1182 N.3     1  UNL1       -0.2902
      6 H          57.2832   89.1642    6.2608 H       1  UNL1        0.1237
      7 O          57.5633   92.0888    5.0586 O.2     1  UNL1       -0.2734
      8 C          58.8778   91.3701    5.1339 C.2     1  UNL1        0.2401
      9 N          60.0112   91.7845    4.2432 N.am    1  UNL1       -0.2730
     10 C          59.9790   92.8930    3.2332 C.3     1  UNL1        0.0993
     11 C          61.3238   92.9568    2.5719 C.3     1  UNL1        0.0898
     12 C          62.1873   91.8877    3.1731 C.3     1  UNL1        0.2835
     13 F          63.2243   92.4116    2.2244 F       1  UNL1       -0.2024
     14 F          63.2674   90.9281    3.5761 F       1  UNL1       -0.2024
     15 C          61.3760   91.1632    4.2061 C.3     1  UNL1        0.1601
     16 N          60.6840   88.3983    9.1073 N.3     1  UNL1       -0.2697
     17 C          61.5391   89.3652    9.8713 C.3     1  UNL1        0.0939
     18 C          62.3341   88.8925   11.0521 C.3     1  UNL1        0.1109
     19 N          62.2739   87.4529   11.4690 N.pl3   1  UNL1       -0.2753
     20 C          61.4188   86.4859   10.7050 C.3     1  UNL1        0.1109
     21 C          60.6238   86.9586    9.5241 C.3     1  UNL1        0.0939
     22 C          63.0690   86.9802   12.6500 C.ar    1  UNL1        0.2203
     23 N          63.7426   87.9754   13.5475 N.ar    1  UNL1       -0.2121
     24 C          64.5377   87.5027   14.7284 C.ar    1  UNL1        0.1034
     25 C          64.6590   86.0348   15.0118 C.ar    1  UNL1        0.0414
     26 C          63.9853   85.0395   14.1142 C.ar    1  UNL1        0.1034
     27 N          63.1903   85.5122   12.9333 N.ar    1  UNL1       -0.2121
@<TRIPOS>BOND
     1     7     8    2
     2     1     8    1
     3     1     2    1
     4     2     3    1
     5     3    16    1
     6    16    17    1
     7    17    18    1
     8    18    19    1
     9    19    22    1
    10    22    23   ar
    11    23    24   ar
    12    24    25   ar
    13    25    26   ar
    14    26    27   ar
    15    19    20    1
    16    20    21    1
    17     3     4    1
    18     4     5    1
    19     8     9   am
    20     9    10    1
    21    10    11    1
    22    11    12    1
    23    12    13    1
    24    12    14    1
    25    12    15    1
    26     5     1    1
    27    15     9    1
    28    21    16    1
    29    27    22   ar
    30     5     6    1
@<TRIPOS>MOLECULE
*****
 27 30 0 0 0
SMALL
GASTEIGER

@<TRIPOS>ATOM
      1 C          59.1428   89.5052    6.5313 C.3     1  UNL1        0.1331
      2 C          60.2798   90.0484    5.7176 C.3     1  UNL1        0.0424
      3 C          59.7345   91.1113    4.8106 C.3     1  UNL1        0.0752
      4 C          58.2604   91.2251    5.0637 C.3     1  UNL1        0.0851
      5 N          57.8946   90.2324    6.1271 N.3     1  UNL1       -0.2902
      6 H          57.2108   89.5697    5.7616 H       1  UNL1        0.1237
      7 O          58.5081   87.1289    7.3681 O.2     1  UNL1       -0.2734
      8 C          59.2373   88.4245    7.5672 C.2     1  UNL1        0.2401
      9 N          60.0609   88.6394    8.8023 N.am    1  UNL1       -0.2730
     10 C          60.2486   87.6558    9.9191 C.3     1  UNL1        0.0993
     11 C          61.1451   88.2841   10.9444 C.3     1  UNL1        0.0898
     12 C          61.5116   89.6561   10.4614 C.3     1  UNL1        0.2835
     13 F          62.2924   89.7264   11.7402 F       1  UNL1       -0.2024
     14 F          62.0412   91.0428   10.2455 F       1  UNL1       -0.2024
     15 C          60.8415   89.8757    9.1374 C.3     1  UNL1        0.1601
     16 N          60.5245   91.9188    3.8237 N.3     1  UNL1       -0.2697
     17 C          61.9795   91.6249    3.6080 C.3     1  UNL1        0.0939
     18 C          62.7695   92.4323    2.6211 C.3     1  UNL1        0.1109
     19 N          62.1045   93.5338    1.8500 N.pl3   1  UNL1       -0.2753
     20 C          60.6495   93.8277    2.0658 C.3     1  UNL1        0.1109
     21 C          59.8595   93.0203    3.0526 C.3     1  UNL1        0.0939
     22 C          62.8945   94.3413    0.8631 C.ar    1  UNL1        0.2203
     23 N          64.3932   94.3445    0.9256 N.ar    1  UNL1       -0.2121
     24 C          65.1832   95.1520   -0.0613 C.ar    1  UNL1        0.1034
     25 C          64.4745   95.9562   -1.1106 C.ar    1  UNL1        0.0414
     26 C          62.9758   95.9529   -1.1730 C.ar    1  UNL1        0.1034
     27 N          62.1858   95.1455   -0.1861 N.ar    1  UNL1       -0.2121
@<TRIPOS>BOND
     1     7     8    2
     2     1     8    1
     3     1     2    1
     4     2     3    1
     5     3    16    1
     6    16    17    1
     7    17    18    1
     8    18    19    1
     9    19    22    1
    10    22    23   ar
    11    23    24   ar
    12    24    25   ar
    13    25    26   ar
    14    26    27   ar
    15    19    20    1
    16    20    21    1
    17     3     4    1
    18     4     5    1
    19     8     9   am
    20     9    10    1
    21    10    11    1
    22    11    12    1
    23    12    13    1
    24    12    14    1
    25    12    15    1
    26     5     1    1
    27    15     9    1
    28    21    16    1
    29    27    22   ar
    30     5     6    1
