@<TRIPOS>MOLECULE
*****
 28 31 0 0 0
SMALL
GASTEIGER

@<TRIPOS>ATOM
      1 N          62.5460   88.5848   11.0255 N.am    1  UNL1       -0.2788
      2 C          61.9588   89.3554   12.1706 C.2     1  UNL1        0.2571
      3 O          60.4791   89.5929   12.2345 O.2     1  UNL1       -0.2692
      4 H          63.5172   88.4290   10.9836 H       1  UNL1        0.1552
      5 C          60.0512   88.4654    7.9414 C.ar    1  UNL1        0.0698
      6 C          59.8685   86.9852    7.7817 C.ar    1  UNL1        0.0119
      7 C          60.5783   86.0382    8.7033 C.ar    1  UNL1        0.0195
      8 C          61.4707   86.5713    9.7846 C.ar    1  UNL1        0.0790
      9 C          61.6535   88.0516    9.9442 C.ar    1  UNL1        0.0676
     10 C          60.9437   88.9986    9.0226 C.ar    1  UNL1        0.0264
     11 N          62.1805   85.6243   10.7062 N.ar    1  UNL1       -0.2852
     12 C          62.0640   85.5955   12.2013 C.ar    1  UNL1        0.1023
     13 C          62.9429   84.4932   12.7137 C.ar    1  UNL1        0.1196
     14 N          63.6026   83.8407   11.5351 N.ar    1  UNL1       -0.2220
     15 C          63.1314   84.5398   10.2944 C.ar    1  UNL1        0.1829
     16 N          58.6317   90.3595    6.0982 N.1     1  UNL1       -0.1908
     17 C          59.3414   89.4125    7.0198 C.1     1  UNL1        0.1005
     18 C          62.8513   89.8887   13.2519 C.ar    1  UNL1        0.1035
     19 C          62.5869   89.8204   14.7269 C.ar    1  UNL1        0.1105
     20 N          63.7371   90.4733   15.4347 N.ar    1  UNL1       -0.2366
     21 C          64.7122   90.9451   14.3971 C.ar    1  UNL1        0.1109
     22 S          64.1648   90.5838   13.0481 S.2     1  UNL1       -0.0619
     23 C          66.0074   91.6537   14.6620 C.ar    1  UNL1        0.0238
     24 C          67.1214   91.5799   13.6602 C.ar    1  UNL1        0.0020
     25 C          68.4166   92.2885   13.9251 C.ar    1  UNL1        0.0001
     26 C          68.5978   93.0712   15.1918 C.ar    1  UNL1        0.0000
     27 C          67.4839   93.1451   16.1937 C.ar    1  UNL1        0.0001
     28 C          66.1887   92.4364   15.9287 C.ar    1  UNL1        0.0020
@<TRIPOS>BOND
     1    16    17    3
     2    17     5    1
     3     5     6   ar
     4     6     7   ar
     5     7     8   ar
     6     8    11    1
     7    11    12   ar
     8    12    13   ar
     9    13    14   ar
    10    14    15   ar
    11     8     9   ar
    12     9     1    1
    13     1     2   am
    14     2     3    2
    15     2    18    1
    16    18    19   ar
    17    19    20   ar
    18    20    21   ar
    19    21    23    1
    20    23    24   ar
    21    24    25   ar
    22    25    26   ar
    23    26    27   ar
    24    27    28   ar
    25    21    22   ar
    26     9    10   ar
    27    10     5   ar
    28    15    11   ar
    29    22    18   ar
    30    28    23   ar
    31     1     4    1
@<TRIPOS>MOLECULE
*****
 28 31 0 0 0
SMALL
GASTEIGER

@<TRIPOS>ATOM
      1 N          65.1944   89.5702   14.1762 N.am    1  UNL1       -0.2788
      2 C          64.2111   89.2441   15.2609 C.2     1  UNL1        0.2571
      3 O          63.6556   90.3384   16.1234 O.2     1  UNL1       -0.2692
      4 H          65.5590   88.8519   13.6101 H       1  UNL1        0.1552
      5 C          67.1126   93.0187   14.5990 C.ar    1  UNL1        0.0698
      6 C          66.4782   93.8313   13.5095 C.ar    1  UNL1        0.0119
      7 C          65.4160   93.2236   12.6421 C.ar    1  UNL1        0.0195
      8 C          64.9880   91.8032   12.8644 C.ar    1  UNL1        0.0790
      9 C          65.6224   90.9906   13.9539 C.ar    1  UNL1        0.0676
     10 C          66.6846   91.5983   14.8213 C.ar    1  UNL1        0.0264
     11 N          63.9258   91.1955   11.9970 N.ar    1  UNL1       -0.2852
     12 C          62.8264   90.2846   12.4569 C.ar    1  UNL1        0.1023
     13 C          61.9975   89.9181   11.2617 C.ar    1  UNL1        0.1196
     14 N          62.5846   90.6026   10.0630 N.ar    1  UNL1       -0.2220
     15 C          63.7763   91.3920   10.5175 C.ar    1  UNL1        0.1829
     16 N          69.2371   94.2341   16.3337 N.1     1  UNL1       -0.1908
     17 C          68.1748   93.6264   15.4664 C.1     1  UNL1        0.1005
     18 C          63.7831   87.8237   15.4832 C.ar    1  UNL1        0.1035
     19 C          63.1177   87.2860   16.7153 C.ar    1  UNL1        0.1105
     20 N          62.8688   85.8215   16.5060 N.ar    1  UNL1       -0.2366
     21 C          63.3804   85.4544   15.1445 C.ar    1  UNL1        0.1109
     22 S          63.9455   86.6918   14.5124 S.2     1  UNL1       -0.0619
     23 C          63.3349   84.0895   14.5242 C.ar    1  UNL1        0.0238
     24 C          62.2544   83.1244   14.9131 C.ar    1  UNL1        0.0020
     25 C          62.2089   81.7596   14.2927 C.ar    1  UNL1        0.0001
     26 C          63.2440   81.3596   13.2833 C.ar    1  UNL1        0.0000
     27 C          64.3245   82.3246   12.8944 C.ar    1  UNL1        0.0001
     28 C          64.3699   83.6896   13.5148 C.ar    1  UNL1        0.0020
@<TRIPOS>BOND
     1    16    17    3
     2    17     5    1
     3     5     6   ar
     4     6     7   ar
     5     7     8   ar
     6     8    11    1
     7    11    12   ar
     8    12    13   ar
     9    13    14   ar
    10    14    15   ar
    11     8     9   ar
    12     9     1    1
    13     1     2   am
    14     2     3    2
    15     2    18    1
    16    18    19   ar
    17    19    20   ar
    18    20    21   ar
    19    21    23    1
    20    23    24   ar
    21    24    25   ar
    22    25    26   ar
    23    26    27   ar
    24    27    28   ar
    25    21    22   ar
    26     9    10   ar
    27    10     5   ar
    28    15    11   ar
    29    22    18   ar
    30    28    23   ar
    31     1     4    1
@<TRIPOS>MOLECULE
*****
 28 31 0 0 0
SMALL
GASTEIGER

@<TRIPOS>ATOM
      1 N          62.1980   87.1017   10.6860 N.am    1  UNL1       -0.2788
      2 C          60.7822   87.5952   10.6430 C.2     1  UNL1        0.2571
      3 O          60.0258   87.8160   11.9193 O.2     1  UNL1       -0.2692
      4 H          62.6944   86.9568    9.8483 H       1  UNL1        0.1552
      5 C          63.5531   85.1597   13.8706 C.ar    1  UNL1        0.0698
      6 C          64.1764   86.2836   14.6441 C.ar    1  UNL1        0.0119
      7 C          64.1402   87.6803   14.0982 C.ar    1  UNL1        0.0195
      8 C          63.4807   87.9530   12.7788 C.ar    1  UNL1        0.0790
      9 C          62.8575   86.8291   12.0054 C.ar    1  UNL1        0.0676
     10 C          62.8937   85.4324   12.5513 C.ar    1  UNL1        0.0264
     11 N          63.4445   89.3497   12.2329 N.ar    1  UNL1       -0.2852
     12 C          63.0852   89.7388   10.8295 C.ar    1  UNL1        0.1023
     13 C          63.1799   91.2320   10.7238 C.ar    1  UNL1        0.1196
     14 N          63.5978   91.7659   12.0619 N.ar    1  UNL1       -0.2220
     15 C          63.7613   90.6025   12.9945 C.ar    1  UNL1        0.1829
     16 N          63.6255   82.3664   14.9625 N.1     1  UNL1       -0.1908
     17 C          63.5893   83.7630   14.4166 C.1     1  UNL1        0.1005
     18 C          60.1227   87.8679    9.3236 C.ar    1  UNL1        0.1035
     19 C          59.2830   86.9019    8.5413 C.ar    1  UNL1        0.1105
     20 N          58.8284   87.5914    7.2891 N.ar    1  UNL1       -0.2366
     21 C          59.3872   88.9835    7.2975 C.ar    1  UNL1        0.1109
     22 S          60.1871   89.1543    8.5548 S.2     1  UNL1       -0.0619
     23 C          59.1821   90.0222    6.2350 C.ar    1  UNL1        0.0238
     24 C          57.7984   90.5052    5.9154 C.ar    1  UNL1        0.0020
     25 C          57.5933   91.5440    4.8530 C.ar    1  UNL1        0.0001
     26 C          58.7719   92.0998    4.1101 C.ar    1  UNL1        0.0000
     27 C          60.1557   91.6168    4.4296 C.ar    1  UNL1        0.0001
     28 C          60.3607   90.5780    5.4921 C.ar    1  UNL1        0.0020
@<TRIPOS>BOND
     1    16    17    3
     2    17     5    1
     3     5     6   ar
     4     6     7   ar
     5     7     8   ar
     6     8    11    1
     7    11    12   ar
     8    12    13   ar
     9    13    14   ar
    10    14    15   ar
    11     8     9   ar
    12     9     1    1
    13     1     2   am
    14     2     3    2
    15     2    18    1
    16    18    19   ar
    17    19    20   ar
    18    20    21   ar
    19    21    23    1
    20    23    24   ar
    21    24    25   ar
    22    25    26   ar
    23    26    27   ar
    24    27    28   ar
    25    21    22   ar
    26     9    10   ar
    27    10     5   ar
    28    15    11   ar
    29    22    18   ar
    30    28    23   ar
    31     1     4    1
@<TRIPOS>MOLECULE
*****
 28 31 0 0 0
SMALL
GASTEIGER

@<TRIPOS>ATOM
      1 N          63.6694   87.4988   13.1665 N.am    1  UNL1       -0.2788
      2 C          63.6653   86.7371   14.4587 C.2     1  UNL1        0.2571
      3 O          63.8572   87.4625   15.7575 O.2     1  UNL1       -0.2692
      4 H          63.5434   87.0227   12.3141 H       1  UNL1        0.1552
      5 C          65.0378   91.0966   14.1328 C.ar    1  UNL1        0.0698
      6 C          64.2576   91.9602   13.1865 C.ar    1  UNL1        0.0119
      7 C          63.2814   91.3366   12.2335 C.ar    1  UNL1        0.0195
      8 C          63.0853   89.8496   12.2268 C.ar    1  UNL1        0.0790
      9 C          63.8655   88.9860   13.1732 C.ar    1  UNL1        0.0676
     10 C          64.8417   89.6095   14.1261 C.ar    1  UNL1        0.0264
     11 N          62.1091   89.2260   11.2739 N.ar    1  UNL1       -0.2852
     12 C          60.6335   89.0744   11.4969 C.ar    1  UNL1        0.1023
     13 C          60.0494   88.3993   10.2914 C.ar    1  UNL1        0.1196
     14 N          61.1640   88.1337    9.3233 N.ar    1  UNL1       -0.2220
     15 C          62.4369   88.6447    9.9306 C.ar    1  UNL1        0.1829
     16 N          66.9903   92.3436   16.0388 N.1     1  UNL1       -0.1908
     17 C          66.0140   91.7201   15.0858 C.1     1  UNL1        0.1005
     18 C          63.4692   85.2499   14.4521 C.ar    1  UNL1        0.1035
     19 C          63.3399   84.3724   15.6617 C.ar    1  UNL1        0.1105
     20 N          63.1588   82.9593   15.1919 N.ar    1  UNL1       -0.2366
     21 C          63.1762   82.9637   13.6919 C.ar    1  UNL1        0.1109
     22 S          63.3681   84.3794   13.2347 S.2     1  UNL1       -0.0619
     23 C          63.0279   81.7632   12.8050 C.ar    1  UNL1        0.0238
     24 C          63.2808   81.8835   11.3314 C.ar    1  UNL1        0.0020
     25 C          63.1325   80.6830   10.4445 C.ar    1  UNL1        0.0001
     26 C          62.7312   79.3621   11.0311 C.ar    1  UNL1        0.0000
     27 C          62.4782   79.2417   12.5048 C.ar    1  UNL1        0.0001
     28 C          62.6266   80.4423   13.3917 C.ar    1  UNL1        0.0020
@<TRIPOS>BOND
     1    16    17    3
     2    17     5    1
     3     5     6   ar
     4     6     7   ar
     5     7     8   ar
     6     8    11    1
     7    11    12   ar
     8    12    13   ar
     9    13    14   ar
    10    14    15   ar
    11     8     9   ar
    12     9     1    1
    13     1     2   am
    14     2     3    2
    15     2    18    1
    16    18    19   ar
    17    19    20   ar
    18    20    21   ar
    19    21    23    1
    20    23    24   ar
    21    24    25   ar
    22    25    26   ar
    23    26    27   ar
    24    27    28   ar
    25    21    22   ar
    26     9    10   ar
    27    10     5   ar
    28    15    11   ar
    29    22    18   ar
    30    28    23   ar
    31     1     4    1
@<TRIPOS>MOLECULE
*****
 28 31 0 0 0
SMALL
GASTEIGER

@<TRIPOS>ATOM
      1 N          63.7571   89.6420   12.3126 N.am    1  UNL1       -0.2788
      2 C          62.4116   89.9080   11.7053 C.2     1  UNL1        0.2571
      3 O          61.7735   91.2569   11.8573 O.2     1  UNL1       -0.2692
      4 H          64.1759   88.7566   12.2128 H       1  UNL1        0.1552
      5 C          65.7097   93.0051   13.1047 C.ar    1  UNL1        0.0698
      6 C          65.8794   92.8910   14.5907 C.ar    1  UNL1        0.0119
      7 C          65.3416   91.6940   15.3173 C.ar    1  UNL1        0.0195
      8 C          64.6342   90.6110   14.5580 C.ar    1  UNL1        0.0790
      9 C          64.4645   90.7250   13.0720 C.ar    1  UNL1        0.0676
     10 C          65.0022   91.9221   12.3454 C.ar    1  UNL1        0.0264
     11 N          64.0965   89.4140   15.2847 N.ar    1  UNL1       -0.2852
     12 C          63.2297   89.4415   16.5085 C.ar    1  UNL1        0.1023
     13 C          62.9286   88.0238   16.8953 C.ar    1  UNL1        0.1196
     14 N          63.6094   87.1201   15.9105 N.ar    1  UNL1       -0.2220
     15 C          64.3312   87.9793   14.9150 C.ar    1  UNL1        0.1829
     16 N          66.7851   95.3991   11.6514 N.1     1  UNL1       -0.1908
     17 C          66.2474   94.2021   12.3781 C.1     1  UNL1        0.1005
     18 C          61.7041   88.8249   10.9459 C.ar    1  UNL1        0.1035
     19 C          60.3014   88.3512   11.1869 C.ar    1  UNL1        0.1105
     20 N          60.0055   87.2590   10.2021 N.ar    1  UNL1       -0.2366
     21 C          61.2254   87.0578    9.3526 C.ar    1  UNL1        0.1109
     22 S          62.2751   88.0256    9.8123 S.2     1  UNL1       -0.0619
     23 C          61.3700   86.0634    8.2390 C.ar    1  UNL1        0.0238
     24 C          62.6988   85.4187    7.9770 C.ar    1  UNL1        0.0020
     25 C          62.8434   84.4243    6.8634 C.ar    1  UNL1        0.0001
     26 C          61.6593   84.0746    6.0117 C.ar    1  UNL1        0.0000
     27 C          60.3304   84.7193    6.2736 C.ar    1  UNL1        0.0001
     28 C          60.1858   85.7137    7.3873 C.ar    1  UNL1        0.0020
@<TRIPOS>BOND
     1    16    17    3
     2    17     5    1
     3     5     6   ar
     4     6     7   ar
     5     7     8   ar
     6     8    11    1
     7    11    12   ar
     8    12    13   ar
     9    13    14   ar
    10    14    15   ar
    11     8     9   ar
    12     9     1    1
    13     1     2   am
    14     2     3    2
    15     2    18    1
    16    18    19   ar
    17    19    20   ar
    18    20    21   ar
    19    21    23    1
    20    23    24   ar
    21    24    25   ar
    22    25    26   ar
    23    26    27   ar
    24    27    28   ar
    25    21    22   ar
    26     9    10   ar
    27    10     5   ar
    28    15    11   ar
    29    22    18   ar
    30    28    23   ar
    31     1     4    1
@<TRIPOS>MOLECULE
*****
 28 31 0 0 0
SMALL
GASTEIGER

@<TRIPOS>ATOM
      1 N          62.5519   86.7387   11.7630 N.am    1  UNL1       -0.2788
      2 C          63.1727   86.0638   12.9500 C.2     1  UNL1        0.2571
      3 O          63.9274   86.8728   13.9630 O.2     1  UNL1       -0.2692
      4 H          62.0566   86.2078   11.0981 H       1  UNL1        0.1552
      5 C          63.5957   90.5118   12.4143 C.ar    1  UNL1        0.0698
      6 C          62.9532   91.1903   11.2409 C.ar    1  UNL1        0.0119
      7 C          62.1768   90.3849   10.2416 C.ar    1  UNL1        0.0195
      8 C          62.0431   88.9011   10.4156 C.ar    1  UNL1        0.0790
      9 C          62.6856   88.2226   11.5889 C.ar    1  UNL1        0.0676
     10 C          63.4620   89.0280   12.5883 C.ar    1  UNL1        0.0264
     11 N          61.2667   88.0957    9.4162 N.ar    1  UNL1       -0.2852
     12 C          59.9148   88.4403    8.8654 C.ar    1  UNL1        0.1023
     13 C          59.5185   87.3620    7.9010 C.ar    1  UNL1        0.1196
     14 N          60.6256   86.3508    7.8558 N.ar    1  UNL1       -0.2220
     15 C          61.7060   86.8044    8.7923 C.ar    1  UNL1        0.1829
     16 N          65.1484   92.1226   14.4129 N.1     1  UNL1       -0.1908
     17 C          64.3721   91.3172   13.4136 C.1     1  UNL1        0.1005
     18 C          63.0390   84.5799   13.1240 C.ar    1  UNL1        0.1035
     19 C          62.8958   83.8548   14.4292 C.ar    1  UNL1        0.1105
     20 N          62.7933   82.3873   14.1353 N.ar    1  UNL1       -0.2366
     21 C          62.8730   82.2057   12.6484 C.ar    1  UNL1        0.1109
     22 S          63.0248   83.5608   12.0235 S.2     1  UNL1       -0.0619
     23 C          62.8117   80.8986   11.9154 C.ar    1  UNL1        0.0238
     24 C          62.5343   79.6299   12.6660 C.ar    1  UNL1        0.0020
     25 C          62.4730   78.3228   11.9329 C.ar    1  UNL1        0.0001
     26 C          62.6890   78.2842   10.4491 C.ar    1  UNL1        0.0000
     27 C          62.9663   79.5529    9.6983 C.ar    1  UNL1        0.0001
     28 C          63.0276   80.8601   10.4315 C.ar    1  UNL1        0.0020
@<TRIPOS>BOND
     1    16    17    3
     2    17     5    1
     3     5     6   ar
     4     6     7   ar
     5     7     8   ar
     6     8    11    1
     7    11    12   ar
     8    12    13   ar
     9    13    14   ar
    10    14    15   ar
    11     8     9   ar
    12     9     1    1
    13     1     2   am
    14     2     3    2
    15     2    18    1
    16    18    19   ar
    17    19    20   ar
    18    20    21   ar
    19    21    23    1
    20    23    24   ar
    21    24    25   ar
    22    25    26   ar
    23    26    27   ar
    24    27    28   ar
    25    21    22   ar
    26     9    10   ar
    27    10     5   ar
    28    15    11   ar
    29    22    18   ar
    30    28    23   ar
    31     1     4    1
@<TRIPOS>MOLECULE
*****
 28 31 0 0 0
SMALL
GASTEIGER

@<TRIPOS>ATOM
      1 N          62.6340   89.5097    9.7418 N.am    1  UNL1       -0.2788
      2 C          62.5013   90.6684   10.6850 C.2     1  UNL1        0.2571
      3 O          61.1413   91.1728   11.0669 O.2     1  UNL1       -0.2692
      4 H          63.5267   89.1787    9.4911 H       1  UNL1        0.1552
      5 C          59.3651   88.9046    7.5742 C.ar    1  UNL1        0.0698
      6 C          58.9517   87.5463    8.0578 C.ar    1  UNL1        0.0119
      7 C          59.7657   86.8424    9.1028 C.ar    1  UNL1        0.0195
      8 C          60.9931   87.4968    9.6641 C.ar    1  UNL1        0.0790
      9 C          61.4065   88.8552    9.1805 C.ar    1  UNL1        0.0676
     10 C          60.5925   89.5591    8.1355 C.ar    1  UNL1        0.0264
     11 N          61.8071   86.7929   10.7090 N.ar    1  UNL1       -0.2852
     12 C          62.0895   85.3207   10.7630 C.ar    1  UNL1        0.1023
     13 C          62.9386   85.0555   11.9708 C.ar    1  UNL1        0.1196
     14 N          63.1810   86.3638   12.6633 N.ar    1  UNL1       -0.2220
     15 C          62.4818   87.4376   11.8834 C.ar    1  UNL1        0.1829
     16 N          57.7371   90.3125    5.4843 N.1     1  UNL1       -0.1908
     17 C          58.5511   89.6086    6.5293 C.1     1  UNL1        0.1005
     18 C          63.7288   91.3230   11.2463 C.ar    1  UNL1        0.1035
     19 C          64.6593   92.2355   10.5035 C.ar    1  UNL1        0.1105
     20 N          65.7468   92.6564   11.4471 N.ar    1  UNL1       -0.2366
     21 C          65.4884   92.0040   12.7729 C.ar    1  UNL1        0.1109
     22 S          64.2412   91.1799   12.6487 S.2     1  UNL1       -0.0619
     23 C          66.3295   92.1500   14.0061 C.ar    1  UNL1        0.0238
     24 C          65.6799   92.4361   15.3276 C.ar    1  UNL1        0.0020
     25 C          66.5210   92.5821   16.5609 C.ar    1  UNL1        0.0001
     26 C          68.0119   92.4421   16.4729 C.ar    1  UNL1        0.0000
     27 C          68.6616   92.1560   15.1514 C.ar    1  UNL1        0.0001
     28 C          67.8204   92.0099   13.9181 C.ar    1  UNL1        0.0020
@<TRIPOS>BOND
     1    16    17    3
     2    17     5    1
     3     5     6   ar
     4     6     7   ar
     5     7     8   ar
     6     8    11    1
     7    11    12   ar
     8    12    13   ar
     9    13    14   ar
    10    14    15   ar
    11     8     9   ar
    12     9     1    1
    13     1     2   am
    14     2     3    2
    15     2    18    1
    16    18    19   ar
    17    19    20   ar
    18    20    21   ar
    19    21    23    1
    20    23    24   ar
    21    24    25   ar
    22    25    26   ar
    23    26    27   ar
    24    27    28   ar
    25    21    22   ar
    26     9    10   ar
    27    10     5   ar
    28    15    11   ar
    29    22    18   ar
    30    28    23   ar
    31     1     4    1
@<TRIPOS>MOLECULE
*****
 28 31 0 0 0
SMALL
GASTEIGER

@<TRIPOS>ATOM
      1 N          62.4603   87.9357   10.5569 N.am    1  UNL1       -0.2788
      2 C          62.4928   87.2940   11.9123 C.2     1  UNL1        0.2571
      3 O          61.6087   86.1187   12.2071 O.2     1  UNL1       -0.2692
      4 H          63.0406   88.7071   10.3633 H       1  UNL1        0.1552
      5 C          61.1266   85.8476    7.4566 C.ar    1  UNL1        0.0698
      6 C          59.7103   86.3347    7.3750 C.ar    1  UNL1        0.0119
      7 C          59.2106   87.3554    8.3540 C.ar    1  UNL1        0.0195
      8 C          60.1272   87.8891    9.4146 C.ar    1  UNL1        0.0790
      9 C          61.5436   87.4020    9.4962 C.ar    1  UNL1        0.0676
     10 C          62.0433   86.3813    8.5172 C.ar    1  UNL1        0.0264
     11 N          59.6275   88.9098   10.3936 N.ar    1  UNL1       -0.2852
     12 C          59.0742   88.6255   11.7585 C.ar    1  UNL1        0.1023
     13 C          58.6981   89.9341   12.3880 C.ar    1  UNL1        0.1196
     14 N          59.0190   91.0271   11.4122 N.ar    1  UNL1       -0.2220
     15 C          59.5934   90.3941   10.1796 C.ar    1  UNL1        0.1829
     16 N          62.1260   83.8061    5.4987 N.1     1  UNL1       -0.1908
     17 C          61.6263   84.8269    6.4776 C.1     1  UNL1        0.1005
     18 C          63.4096   87.8277   12.9729 C.ar    1  UNL1        0.1035
     19 C          64.0882   87.0202   14.0395 C.ar    1  UNL1        0.1105
     20 N          64.9067   87.9560   14.8789 N.ar    1  UNL1       -0.2366
     21 C          64.7338   89.3417   14.3311 C.ar    1  UNL1        0.1109
     22 S          63.8085   89.2624   13.1532 S.2     1  UNL1       -0.0619
     23 C          65.3738   90.5878   14.8672 C.ar    1  UNL1        0.0238
     24 C          66.6775   91.0653   14.2995 C.ar    1  UNL1        0.0020
     25 C          67.3175   92.3115   14.8355 C.ar    1  UNL1        0.0001
     26 C          66.6538   93.0802   15.9394 C.ar    1  UNL1        0.0000
     27 C          65.3500   92.6028   16.5072 C.ar    1  UNL1        0.0001
     28 C          64.7101   91.3566   15.9711 C.ar    1  UNL1        0.0020
@<TRIPOS>BOND
     1    16    17    3
     2    17     5    1
     3     5     6   ar
     4     6     7   ar
     5     7     8   ar
     6     8    11    1
     7    11    12   ar
     8    12    13   ar
     9    13    14   ar
    10    14    15   ar
    11     8     9   ar
    12     9     1    1
    13     1     2   am
    14     2     3    2
    15     2    18    1
    16    18    19   ar
    17    19    20   ar
    18    20    21   ar
    19    21    23    1
    20    23    24   ar
    21    24    25   ar
    22    25    26   ar
    23    26    27   ar
    24    27    28   ar
    25    21    22   ar
    26     9    10   ar
    27    10     5   ar
    28    15    11   ar
    29    22    18   ar
    30    28    23   ar
    31     1     4    1
@<TRIPOS>MOLECULE
*****
 28 31 0 0 0
SMALL
GASTEIGER

@<TRIPOS>ATOM
      1 N          59.5036   94.2488    1.3810 N.am    1  UNL1       -0.2788
      2 C          58.9341   93.7808    0.0747 C.2     1  UNL1        0.2571
      3 O          59.2164   92.3901   -0.4114 O.2     1  UNL1       -0.2692
      4 H          59.3183   95.1615    1.7001 H       1  UNL1        0.1552
      5 C          60.5862   91.5770    4.1086 C.ar    1  UNL1        0.0698
      6 C          62.0592   91.4806    3.8420 C.ar    1  UNL1        0.0119
      7 C          62.6803   92.3069    2.7550 C.ar    1  UNL1        0.0195
      8 C          61.8285   93.2296    1.9347 C.ar    1  UNL1        0.0790
      9 C          60.3555   93.3260    2.2014 C.ar    1  UNL1        0.0676
     10 C          59.7344   92.4997    3.2883 C.ar    1  UNL1        0.0264
     11 N          62.4496   94.0560    0.8478 N.ar    1  UNL1       -0.2852
     12 C          62.6473   93.6329   -0.5776 C.ar    1  UNL1        0.1023
     13 C          63.3019   94.7659   -1.3109 C.ar    1  UNL1        0.1196
     14 N          63.5088   95.8892   -0.3387 N.ar    1  UNL1       -0.2220
     15 C          62.9820   95.4505    0.9955 C.ar    1  UNL1        0.1829
     16 N          59.3440   89.9243    6.2824 N.1     1  UNL1       -0.1908
     17 C          59.9651   90.7506    5.1955 C.1     1  UNL1        0.1005
     18 C          58.0822   94.7036   -0.7456 C.ar    1  UNL1        0.1035
     19 C          58.5026   96.0328   -1.2991 C.ar    1  UNL1        0.1105
     20 N          57.3406   96.6099   -2.0521 N.ar    1  UNL1       -0.2366
     21 C          56.2021   95.6372   -1.9638 C.ar    1  UNL1        0.1109
     22 S          56.6604   94.4591   -1.1564 S.2     1  UNL1       -0.0619
     23 C          54.8438   95.8120   -2.5756 C.ar    1  UNL1        0.0238
     24 C          54.7125   96.0905   -4.0437 C.ar    1  UNL1        0.0020
     25 C          53.3542   96.2653   -4.6554 C.ar    1  UNL1        0.0001
     26 C          52.1270   96.1617   -3.7991 C.ar    1  UNL1        0.0000
     27 C          52.2581   95.8832   -2.3310 C.ar    1  UNL1        0.0001
     28 C          53.6166   95.7084   -1.7193 C.ar    1  UNL1        0.0020
@<TRIPOS>BOND
     1    16    17    3
     2    17     5    1
     3     5     6   ar
     4     6     7   ar
     5     7     8   ar
     6     8    11    1
     7    11    12   ar
     8    12    13   ar
     9    13    14   ar
    10    14    15   ar
    11     8     9   ar
    12     9     1    1
    13     1     2   am
    14     2     3    2
    15     2    18    1
    16    18    19   ar
    17    19    20   ar
    18    20    21   ar
    19    21    23    1
    20    23    24   ar
    21    24    25   ar
    22    25    26   ar
    23    26    27   ar
    24    27    28   ar
    25    21    22   ar
    26     9    10   ar
    27    10     5   ar
    28    15    11   ar
    29    22    18   ar
    30    28    23   ar
    31     1     4    1
