@<TRIPOS>MOLECULE
*****
 29 31 0 0 0
SMALL
GASTEIGER

@<TRIPOS>ATOM
      1 C          64.2357   89.3369   14.6819 C.3     1  UNL1        0.0937
      2 N          64.0292   87.9589   14.1267 N.3     1  UNL1       -0.2683
      3 C          64.5620   86.7658   14.8634 C.3     1  UNL1        0.0939
      4 C          64.3555   85.3878   14.3082 C.3     1  UNL1        0.1081
      5 N          63.6162   85.2027   13.0163 N.pl3   1  UNL1       -0.3049
      6 C          63.0834   86.3957   12.2795 C.3     1  UNL1        0.1081
      7 C          63.2899   87.7738   12.8347 C.3     1  UNL1        0.0939
      8 C          63.4097   83.8247   12.4611 C.ar    1  UNL1        0.0436
      9 C          63.8903   83.4929   11.0794 C.ar    1  UNL1        0.0142
     10 C          63.6838   82.1148   10.5242 C.ar    1  UNL1        0.0009
     11 C          62.9966   81.0685   11.3506 C.ar    1  UNL1       -0.0045
     12 C          62.5160   81.4002   12.7322 C.ar    1  UNL1       -0.0246
     13 C          61.8288   80.3539   13.5586 C.3     1  UNL1        0.0307
     14 C          62.7225   82.7783   13.2875 C.ar    1  UNL1       -0.0125
     15 C          62.2418   83.1100   14.6691 C.3     1  UNL1        0.0320
     16 C          63.5530   90.5116   14.0463 C.3     1  UNL1        0.1070
     17 C          65.4567   92.0665   13.2045 C.2     1  UNL1        0.2637
     18 O          66.0171   92.1327   14.5942 O.2     1  UNL1       -0.2685
     19 N          64.2247   91.2559   12.9305 N.am    1  UNL1       -0.2982
     20 H          63.8568   91.2124   12.0183 H       1  UNL1        0.1498
     21 C          66.4849   95.0032   10.7411 C.ar    1  UNL1        0.1898
     22 N          67.4714   94.2994    9.8571 N.ar    1  UNL1       -0.2256
     23 C          67.7864   92.8513   10.0890 C.ar    1  UNL1        0.0632
     24 C          68.7730   92.1475    9.2049 C.3     1  UNL1        0.0522
     25 C          67.1148   92.1070   11.2047 C.ar    1  UNL1        0.0386
     26 C          66.1283   92.8108   12.0886 C.ar    1  UNL1        0.1377
     27 N          65.8133   94.2589   11.8568 N.ar    1  UNL1       -0.2166
     28 C          64.8087   96.8547   10.0251 C.3     1  UNL1        0.0772
     29 S          66.1699   96.4514   10.5092 S.3     1  UNL1       -0.0748
@<TRIPOS>BOND
     1    28    29    1
     2    29    21    1
     3    21    22   ar
     4    22    23   ar
     5    23    24    1
     6    23    25   ar
     7    25    26   ar
     8    26    17    1
     9    17    18    2
    10    17    19   am
    11    19    16    1
    12    16     1    1
    13     1     2    1
    14     2     3    1
    15     3     4    1
    16     4     5    1
    17     5     8    1
    18     8     9   ar
    19     9    10   ar
    20    10    11   ar
    21    11    12   ar
    22    12    13    1
    23    12    14   ar
    24    14    15    1
    25     5     6    1
    26     6     7    1
    27    26    27   ar
    28    27    21   ar
    29     7     2    1
    30    14     8   ar
    31    19    20    1
@<TRIPOS>MOLECULE
*****
 29 31 0 0 0
SMALL
GASTEIGER

@<TRIPOS>ATOM
      1 C          63.0935   86.8699   17.3622 C.3     1  UNL1        0.0937
      2 N          63.1627   85.9217   16.2021 N.3     1  UNL1       -0.2683
      3 C          61.9939   85.0361   15.8864 C.3     1  UNL1        0.0939
      4 C          62.0631   84.0878   14.7263 C.3     1  UNL1        0.1081
      5 N          63.3012   84.0251   13.8818 N.pl3   1  UNL1       -0.3049
      6 C          64.4700   84.9106   14.1974 C.3     1  UNL1        0.1081
      7 C          64.4008   85.8589   15.3575 C.3     1  UNL1        0.0939
      8 C          63.3704   83.0768   12.7216 C.ar    1  UNL1        0.0436
      9 C          63.9056   83.5453   11.4009 C.ar    1  UNL1        0.0142
     10 C          63.9748   82.5970   10.2408 C.ar    1  UNL1        0.0009
     11 C          63.5089   81.1803   10.4013 C.ar    1  UNL1       -0.0045
     12 C          62.9737   80.7118   11.7219 C.ar    1  UNL1       -0.0246
     13 C          62.5078   79.2950   11.8824 C.3     1  UNL1        0.0307
     14 C          62.9045   81.6601   12.8821 C.ar    1  UNL1       -0.0125
     15 C          62.3693   81.1916   14.2027 C.3     1  UNL1        0.0320
     16 C          63.0996   88.3505   17.1220 C.3     1  UNL1        0.1070
     17 C          63.6194   90.3640   15.5644 C.2     1  UNL1        0.2637
     18 O          63.4658   91.3016   16.7251 O.2     1  UNL1       -0.2685
     19 N          63.4363   88.8885   15.7628 N.am    1  UNL1       -0.2982
     20 H          63.5371   88.2731   15.0009 H       1  UNL1        0.1498
     21 C          65.3586   92.4846   12.6959 C.ar    1  UNL1        0.1898
     22 N          64.6294   91.9778   11.4870 N.ar    1  UNL1       -0.2256
     23 C          63.5636   90.9331   11.6372 C.ar    1  UNL1        0.0632
     24 C          62.8345   90.4263   10.4282 C.3     1  UNL1        0.0522
     25 C          63.2269   90.3951   12.9963 C.ar    1  UNL1        0.0386
     26 C          63.9561   90.9019   14.2052 C.ar    1  UNL1        0.1377
     27 N          65.0219   91.9466   14.0550 N.ar    1  UNL1       -0.2166
     28 C          66.1933   94.7139   11.6550 C.3     1  UNL1        0.0772
     29 S          66.4244   93.5293   12.5457 S.3     1  UNL1       -0.0748
@<TRIPOS>BOND
     1    28    29    1
     2    29    21    1
     3    21    22   ar
     4    22    23   ar
     5    23    24    1
     6    23    25   ar
     7    25    26   ar
     8    26    17    1
     9    17    18    2
    10    17    19   am
    11    19    16    1
    12    16     1    1
    13     1     2    1
    14     2     3    1
    15     3     4    1
    16     4     5    1
    17     5     8    1
    18     8     9   ar
    19     9    10   ar
    20    10    11   ar
    21    11    12   ar
    22    12    13    1
    23    12    14   ar
    24    14    15    1
    25     5     6    1
    26     6     7    1
    27    26    27   ar
    28    27    21   ar
    29     7     2    1
    30    14     8   ar
    31    19    20    1
@<TRIPOS>MOLECULE
*****
 29 31 0 0 0
SMALL
GASTEIGER

@<TRIPOS>ATOM
      1 C          63.1874   87.9537   17.1772 C.3     1  UNL1        0.0937
      2 N          63.1158   86.6976   16.3605 N.3     1  UNL1       -0.2683
      3 C          64.1802   86.4008   15.3461 C.3     1  UNL1        0.0939
      4 C          64.1085   85.1447   14.5293 C.3     1  UNL1        0.1081
      5 N          62.9724   84.1854   14.7270 N.pl3   1  UNL1       -0.3049
      6 C          61.9081   84.4821   15.7414 C.3     1  UNL1        0.1081
      7 C          61.9797   85.7383   16.5582 C.3     1  UNL1        0.0939
      8 C          62.9008   82.9293   13.9103 C.ar    1  UNL1        0.0436
      9 C          62.5149   81.6334   14.5598 C.ar    1  UNL1        0.0142
     10 C          62.4432   80.3773   13.7430 C.ar    1  UNL1        0.0009
     11 C          62.7574   80.4171   12.2768 C.ar    1  UNL1       -0.0045
     12 C          63.1433   81.7129   11.6274 C.ar    1  UNL1       -0.0246
     13 C          63.4574   81.7527   10.1612 C.3     1  UNL1        0.0307
     14 C          63.2150   82.9691   12.4441 C.ar    1  UNL1       -0.0125
     15 C          63.6008   84.2649   11.7946 C.3     1  UNL1        0.0320
     16 C          62.6637   89.2430   16.6176 C.3     1  UNL1        0.1070
     17 C          64.0299   90.3849   14.7255 C.2     1  UNL1        0.2637
     18 O          63.4853   89.3974   13.7364 O.2     1  UNL1       -0.2685
     19 N          63.6191   90.3077   16.1661 N.am    1  UNL1       -0.2982
     20 H          63.9765   90.9558   16.8152 H       1  UNL1        0.1498
     21 C          65.8308   93.0824   12.4386 C.ar    1  UNL1        0.1898
     22 N          66.8959   93.5788   13.3709 N.ar    1  UNL1       -0.2256
     23 C          67.0056   93.0105   14.7548 C.ar    1  UNL1        0.0632
     24 C          68.0708   93.5068   15.6871 C.3     1  UNL1        0.0522
     25 C          66.0503   91.9459   15.2063 C.ar    1  UNL1        0.0386
     26 C          64.9853   91.4495   14.2740 C.ar    1  UNL1        0.1377
     27 N          64.8755   92.0178   12.8902 N.ar    1  UNL1       -0.2166
     28 C          66.2082   95.0414   10.7743 C.3     1  UNL1        0.0772
     29 S          65.7210   93.6507   11.0548 S.3     1  UNL1       -0.0748
@<TRIPOS>BOND
     1    28    29    1
     2    29    21    1
     3    21    22   ar
     4    22    23   ar
     5    23    24    1
     6    23    25   ar
     7    25    26   ar
     8    26    17    1
     9    17    18    2
    10    17    19   am
    11    19    16    1
    12    16     1    1
    13     1     2    1
    14     2     3    1
    15     3     4    1
    16     4     5    1
    17     5     8    1
    18     8     9   ar
    19     9    10   ar
    20    10    11   ar
    21    11    12   ar
    22    12    13    1
    23    12    14   ar
    24    14    15    1
    25     5     6    1
    26     6     7    1
    27    26    27   ar
    28    27    21   ar
    29     7     2    1
    30    14     8   ar
    31    19    20    1
@<TRIPOS>MOLECULE
*****
 29 31 0 0 0
SMALL
GASTEIGER

@<TRIPOS>ATOM
      1 C          64.3054   88.9812   14.3044 C.3     1  UNL1        0.0937
      2 N          63.5339   88.4942   13.1139 N.3     1  UNL1       -0.2683
      3 C          62.9714   89.4779   12.1310 C.3     1  UNL1        0.0939
      4 C          62.1999   88.9909   10.9404 C.3     1  UNL1        0.1081
      5 N          61.9907   87.5202   10.7327 N.pl3   1  UNL1       -0.3049
      6 C          62.5531   86.5365   11.7154 C.3     1  UNL1        0.1081
      7 C          63.3247   87.0235   12.9061 C.3     1  UNL1        0.0939
      8 C          61.2192   87.0332    9.5421 C.ar    1  UNL1        0.0436
      9 C          59.8242   87.5281    9.2987 C.ar    1  UNL1        0.0142
     10 C          59.0526   87.0411    8.1081 C.ar    1  UNL1        0.0009
     11 C          59.6760   86.0592    7.1609 C.ar    1  UNL1       -0.0045
     12 C          61.0709   85.5643    7.4042 C.ar    1  UNL1       -0.0246
     13 C          61.6943   84.5823    6.4570 C.3     1  UNL1        0.0307
     14 C          61.8425   86.0513    8.5949 C.ar    1  UNL1       -0.0125
     15 C          63.2375   85.5564    8.8382 C.3     1  UNL1        0.0320
     16 C          64.5664   90.4478   14.4802 C.3     1  UNL1        0.1070
     17 C          66.3174   91.9369   13.2691 C.2     1  UNL1        0.2637
     18 O          67.2673   91.7520   14.4152 O.2     1  UNL1       -0.2685
     19 N          64.9670   91.2849   13.3016 N.am    1  UNL1       -0.2982
     20 H          64.3435   91.4062   12.5494 H       1  UNL1        0.1498
     21 C          66.7016   95.0501   10.8379 C.ar    1  UNL1        0.1898
     22 N          67.5189   94.4481    9.7336 N.ar    1  UNL1       -0.2256
     23 C          67.9357   93.0091    9.8077 C.ar    1  UNL1        0.0632
     24 C          68.7531   92.4072    8.7033 C.3     1  UNL1        0.0522
     25 C          67.5352   92.1721   10.9862 C.ar    1  UNL1        0.0386
     26 C          66.7179   92.7740   12.0906 C.ar    1  UNL1        0.1377
     27 N          66.3011   94.2130   12.0164 N.ar    1  UNL1       -0.2166
     28 C          64.9585   96.8560   10.1670 C.3     1  UNL1        0.0772
     29 S          66.2848   96.4891   10.7638 S.3     1  UNL1       -0.0748
@<TRIPOS>BOND
     1    28    29    1
     2    29    21    1
     3    21    22   ar
     4    22    23   ar
     5    23    24    1
     6    23    25   ar
     7    25    26   ar
     8    26    17    1
     9    17    18    2
    10    17    19   am
    11    19    16    1
    12    16     1    1
    13     1     2    1
    14     2     3    1
    15     3     4    1
    16     4     5    1
    17     5     8    1
    18     8     9   ar
    19     9    10   ar
    20    10    11   ar
    21    11    12   ar
    22    12    13    1
    23    12    14   ar
    24    14    15    1
    25     5     6    1
    26     6     7    1
    27    26    27   ar
    28    27    21   ar
    29     7     2    1
    30    14     8   ar
    31    19    20    1
@<TRIPOS>MOLECULE
*****
 29 31 0 0 0
SMALL
GASTEIGER

@<TRIPOS>ATOM
      1 C          63.9685   90.5572   15.4689 C.3     1  UNL1        0.0937
      2 N          64.6919   91.1662   14.3045 N.3     1  UNL1       -0.2683
      3 C          66.1143   91.6172   14.4579 C.3     1  UNL1        0.0939
      4 C          66.8376   92.2263   13.2935 C.3     1  UNL1        0.1081
      5 N          66.1387   92.3843   11.9758 N.pl3   1  UNL1       -0.3049
      6 C          64.7164   91.9334   11.8224 C.3     1  UNL1        0.1081
      7 C          63.9929   91.3243   12.9868 C.3     1  UNL1        0.0939
      8 C          66.8621   92.9934   10.8114 C.ar    1  UNL1        0.0436
      9 C          67.7277   92.1372    9.9351 C.ar    1  UNL1        0.0142
     10 C          68.4510   92.7462    8.7708 C.ar    1  UNL1        0.0009
     11 C          68.3089   94.2114    8.4827 C.ar    1  UNL1       -0.0045
     12 C          67.4433   95.0676    9.3589 C.ar    1  UNL1       -0.0246
     13 C          67.3012   96.5328    9.0707 C.3     1  UNL1        0.0307
     14 C          66.7199   94.4586   10.5233 C.ar    1  UNL1       -0.0125
     15 C          65.8544   95.3147   11.3995 C.3     1  UNL1        0.0320
     16 C          63.9887   89.0709   15.6701 C.3     1  UNL1        0.1070
     17 C          63.8581   86.6700   14.6861 C.2     1  UNL1        0.2637
     18 O          64.2617   86.1033   16.0150 O.2     1  UNL1       -0.2685
     19 N          63.7216   88.1537   14.5136 N.am    1  UNL1       -0.2982
     20 H          63.4567   88.5256   13.6414 H       1  UNL1        0.1498
     21 C          62.4818   85.3039   11.2234 C.ar    1  UNL1        0.1898
     22 N          63.0567   83.9185   11.2166 N.ar    1  UNL1       -0.2256
     23 C          63.8987   83.4502   12.3663 C.ar    1  UNL1        0.0632
     24 C          64.4735   82.0647   12.3594 C.3     1  UNL1        0.0522
     25 C          64.1658   84.3673   13.5227 C.ar    1  UNL1        0.0386
     26 C          63.5909   85.7528   13.5295 C.ar    1  UNL1        0.1377
     27 N          62.7489   86.2211   12.3799 N.ar    1  UNL1       -0.2166
     28 C          62.0263   87.0072    9.3151 C.3     1  UNL1        0.0772
     29 S          61.6398   85.7723   10.0737 S.3     1  UNL1       -0.0748
@<TRIPOS>BOND
     1    28    29    1
     2    29    21    1
     3    21    22   ar
     4    22    23   ar
     5    23    24    1
     6    23    25   ar
     7    25    26   ar
     8    26    17    1
     9    17    18    2
    10    17    19   am
    11    19    16    1
    12    16     1    1
    13     1     2    1
    14     2     3    1
    15     3     4    1
    16     4     5    1
    17     5     8    1
    18     8     9   ar
    19     9    10   ar
    20    10    11   ar
    21    11    12   ar
    22    12    13    1
    23    12    14   ar
    24    14    15    1
    25     5     6    1
    26     6     7    1
    27    26    27   ar
    28    27    21   ar
    29     7     2    1
    30    14     8   ar
    31    19    20    1
@<TRIPOS>MOLECULE
*****
 29 31 0 0 0
SMALL
GASTEIGER

@<TRIPOS>ATOM
      1 C          63.0962   87.5727   17.1092 C.3     1  UNL1        0.0937
      2 N          63.1513   86.5209   16.0413 N.3     1  UNL1       -0.2683
      3 C          62.1746   85.3825   16.0586 C.3     1  UNL1        0.0939
      4 C          62.2297   84.3307   14.9906 C.3     1  UNL1        0.1081
      5 N          63.2615   84.4172   13.9053 N.pl3   1  UNL1       -0.3049
      6 C          64.2382   85.5554   13.8880 C.3     1  UNL1        0.1081
      7 C          64.1831   86.6074   14.9560 C.3     1  UNL1        0.0939
      8 C          63.3166   83.3653   12.8374 C.ar    1  UNL1        0.0436
      9 C          63.8427   83.7068   11.4747 C.ar    1  UNL1        0.0142
     10 C          63.8978   82.6550   10.4068 C.ar    1  UNL1        0.0009
     11 C          63.4269   81.2617   10.7014 C.ar    1  UNL1       -0.0045
     12 C          62.9008   80.9201   12.0639 C.ar    1  UNL1       -0.0246
     13 C          62.4299   79.5268   12.3585 C.3     1  UNL1        0.0307
     14 C          62.8457   81.9720   13.1320 C.ar    1  UNL1       -0.0125
     15 C          62.3196   81.6305   14.4945 C.3     1  UNL1        0.0320
     16 C          62.9605   89.0181   16.7320 C.3     1  UNL1        0.1070
     17 C          64.1568   91.1631   15.8844 C.2     1  UNL1        0.2637
     18 O          63.2651   92.0026   16.7505 O.2     1  UNL1       -0.2685
     19 N          64.0045   89.6709   15.8751 N.am    1  UNL1       -0.2982
     20 H          64.5897   89.1199   15.3067 H       1  UNL1        0.1498
     21 C          65.9695   92.7262   12.7189 C.ar    1  UNL1        0.1898
     22 N          67.2885   93.1212   13.3139 N.ar    1  UNL1       -0.2256
     23 C          67.5637   92.8635   14.7658 C.ar    1  UNL1        0.0632
     24 C          68.8828   93.2586   15.3608 C.3     1  UNL1        0.0522
     25 C          66.5198   92.2108   15.6226 C.ar    1  UNL1        0.0386
     26 C          65.2007   91.8158   15.0276 C.ar    1  UNL1        0.1377
     27 N          64.9256   92.0735   13.5757 N.ar    1  UNL1       -0.2166
     28 C          65.8322   94.3706   10.7121 C.3     1  UNL1        0.0772
     29 S          65.6944   92.9838   11.2670 S.3     1  UNL1       -0.0748
@<TRIPOS>BOND
     1    28    29    1
     2    29    21    1
     3    21    22   ar
     4    22    23   ar
     5    23    24    1
     6    23    25   ar
     7    25    26   ar
     8    26    17    1
     9    17    18    2
    10    17    19   am
    11    19    16    1
    12    16     1    1
    13     1     2    1
    14     2     3    1
    15     3     4    1
    16     4     5    1
    17     5     8    1
    18     8     9   ar
    19     9    10   ar
    20    10    11   ar
    21    11    12   ar
    22    12    13    1
    23    12    14   ar
    24    14    15    1
    25     5     6    1
    26     6     7    1
    27    26    27   ar
    28    27    21   ar
    29     7     2    1
    30    14     8   ar
    31    19    20    1
@<TRIPOS>MOLECULE
*****
 29 31 0 0 0
SMALL
GASTEIGER

@<TRIPOS>ATOM
      1 C          63.0455   87.6884   17.2376 C.3     1  UNL1        0.0937
      2 N          62.9922   86.4558   16.3845 N.3     1  UNL1       -0.2683
      3 C          61.8059   85.5410   16.4618 C.3     1  UNL1        0.0939
      4 C          61.7526   84.3083   15.6088 C.3     1  UNL1        0.1081
      5 N          62.8855   83.9904   14.6785 N.pl3   1  UNL1       -0.3049
      6 C          64.0717   84.9051   14.6012 C.3     1  UNL1        0.1081
      7 C          64.1251   86.1379   15.4543 C.3     1  UNL1        0.0939
      8 C          62.8321   82.7578   13.8255 C.ar    1  UNL1        0.0436
      9 C          62.3807   81.4553   14.4170 C.ar    1  UNL1        0.0142
     10 C          62.3274   80.2226   13.5640 C.ar    1  UNL1        0.0009
     11 C          62.7254   80.2924   12.1194 C.ar    1  UNL1       -0.0045
     12 C          63.1768   81.5948   11.5279 C.ar    1  UNL1       -0.0246
     13 C          63.5748   81.6645   10.0833 C.3     1  UNL1        0.0307
     14 C          63.2301   82.8275   12.3809 C.ar    1  UNL1       -0.0125
     15 C          63.6815   84.1299   11.7894 C.3     1  UNL1        0.0320
     16 C          62.8691   89.0408   16.6131 C.3     1  UNL1        0.1070
     17 C          64.1929   91.0789   15.6945 C.2     1  UNL1        0.2637
     18 O          63.3784   91.9967   16.5572 O.2     1  UNL1       -0.2685
     19 N          63.9383   89.6009   15.7225 N.am    1  UNL1       -0.2982
     20 H          64.4729   88.9985   15.1563 H       1  UNL1        0.1498
     21 C          67.6680   92.5669   14.4862 C.ar    1  UNL1        0.1898
     22 N          67.4005   92.7593   13.0229 N.ar    1  UNL1       -0.2256
     23 C          66.0638   92.3915   12.4501 C.ar    1  UNL1        0.0632
     24 C          65.7963   92.5840   10.9866 C.3     1  UNL1        0.0522
     25 C          64.9946   91.8314   13.3406 C.ar    1  UNL1        0.0386
     26 C          65.2621   91.6390   14.8039 C.ar    1  UNL1        0.1377
     27 N          66.5988   92.0068   15.3767 N.ar    1  UNL1       -0.2166
     28 C          69.1246   94.1013   15.9941 C.3     1  UNL1        0.0772
     29 S          69.0046   92.9346   15.0590 S.3     1  UNL1       -0.0748
@<TRIPOS>BOND
     1    28    29    1
     2    29    21    1
     3    21    22   ar
     4    22    23   ar
     5    23    24    1
     6    23    25   ar
     7    25    26   ar
     8    26    17    1
     9    17    18    2
    10    17    19   am
    11    19    16    1
    12    16     1    1
    13     1     2    1
    14     2     3    1
    15     3     4    1
    16     4     5    1
    17     5     8    1
    18     8     9   ar
    19     9    10   ar
    20    10    11   ar
    21    11    12   ar
    22    12    13    1
    23    12    14   ar
    24    14    15    1
    25     5     6    1
    26     6     7    1
    27    26    27   ar
    28    27    21   ar
    29     7     2    1
    30    14     8   ar
    31    19    20    1
@<TRIPOS>MOLECULE
*****
 29 31 0 0 0
SMALL
GASTEIGER

@<TRIPOS>ATOM
      1 C          63.7014   90.0055   14.9992 C.3     1  UNL1        0.0937
      2 N          64.4592   90.7518   13.9415 N.3     1  UNL1       -0.2683
      3 C          65.8535   91.2323   14.2158 C.3     1  UNL1        0.0939
      4 C          66.6112   91.9786   13.1581 C.3     1  UNL1        0.1081
      5 N          65.9747   92.2445   11.8261 N.pl3   1  UNL1       -0.3049
      6 C          64.5805   91.7641   11.5518 C.3     1  UNL1        0.1081
      7 C          63.8227   91.0177   12.6096 C.3     1  UNL1        0.0939
      8 C          66.7325   92.9908   10.7684 C.ar    1  UNL1        0.0436
      9 C          67.6033   92.2442    9.8018 C.ar    1  UNL1        0.0142
     10 C          68.3611   92.9905    8.7441 C.ar    1  UNL1        0.0009
     11 C          68.2480   94.4835    8.6529 C.ar    1  UNL1       -0.0045
     12 C          67.3772   95.2301    9.6194 C.ar    1  UNL1       -0.0246
     13 C          67.2642   96.7230    9.5282 C.3     1  UNL1        0.0307
     14 C          66.6194   94.4838   10.6772 C.ar    1  UNL1       -0.0125
     15 C          65.7486   95.2304   11.6437 C.3     1  UNL1        0.0320
     16 C          64.1045   88.6079   15.3654 C.3     1  UNL1        0.1070
     17 C          63.5026   86.1502   14.7758 C.2     1  UNL1        0.2637
     18 O          63.1307   85.8980   16.2069 O.2     1  UNL1       -0.2685
     19 N          63.9895   87.5051   14.3550 N.am    1  UNL1       -0.2982
     20 H          64.2335   87.6706   13.4157 H       1  UNL1        0.1498
     21 C          63.3481   82.5128   13.1959 C.ar    1  UNL1        0.1898
     22 N          63.1575   82.8419   11.7449 N.ar    1  UNL1       -0.2256
     23 C          63.0818   84.2737   11.3042 C.ar    1  UNL1        0.0632
     24 C          62.8911   84.6027    9.8532 C.3     1  UNL1        0.0522
     25 C          63.1968   85.3764   12.3145 C.ar    1  UNL1        0.0386
     26 C          63.3875   85.0474   13.7654 C.ar    1  UNL1        0.1377
     27 N          63.4632   83.6156   14.2061 N.ar    1  UNL1       -0.2166
     28 C          62.3403   80.1188   13.2491 C.3     1  UNL1        0.0772
     29 S          63.4238   81.0810   13.6366 S.3     1  UNL1       -0.0748
@<TRIPOS>BOND
     1    28    29    1
     2    29    21    1
     3    21    22   ar
     4    22    23   ar
     5    23    24    1
     6    23    25   ar
     7    25    26   ar
     8    26    17    1
     9    17    18    2
    10    17    19   am
    11    19    16    1
    12    16     1    1
    13     1     2    1
    14     2     3    1
    15     3     4    1
    16     4     5    1
    17     5     8    1
    18     8     9   ar
    19     9    10   ar
    20    10    11   ar
    21    11    12   ar
    22    12    13    1
    23    12    14   ar
    24    14    15    1
    25     5     6    1
    26     6     7    1
    27    26    27   ar
    28    27    21   ar
    29     7     2    1
    30    14     8   ar
    31    19    20    1
@<TRIPOS>MOLECULE
*****
 29 31 0 0 0
SMALL
GASTEIGER

@<TRIPOS>ATOM
      1 C          60.2433   88.8257   10.1118 C.3     1  UNL1        0.0937
      2 N          61.3837   89.6050   10.6965 N.3     1  UNL1       -0.2683
      3 C          61.5902   89.6318   12.1821 C.3     1  UNL1        0.0939
      4 C          62.7306   90.4111   12.7669 C.3     1  UNL1        0.1081
      5 N          63.6647   91.1636   11.8662 N.pl3   1  UNL1       -0.3049
      6 C          63.4583   91.1369   10.3807 C.3     1  UNL1        0.1081
      7 C          62.3177   90.3576    9.7959 C.3     1  UNL1        0.0939
      8 C          64.8051   91.9429   12.4510 C.ar    1  UNL1        0.0436
      9 C          65.2952   93.1839   11.7653 C.ar    1  UNL1        0.0142
     10 C          66.4357   93.9632   12.3501 C.ar    1  UNL1        0.0009
     11 C          67.0861   93.5016   13.6205 C.ar    1  UNL1       -0.0045
     12 C          66.5961   92.2608   14.3061 C.ar    1  UNL1       -0.0246
     13 C          67.2465   91.7992   15.5765 C.3     1  UNL1        0.0307
     14 C          65.4556   91.4814   13.7214 C.ar    1  UNL1       -0.0125
     15 C          64.9655   90.2405   14.4070 C.3     1  UNL1        0.0320
     16 C          60.3198   87.3298   10.0324 C.3     1  UNL1        0.1070
     17 C          62.0401   85.6348   10.9902 C.2     1  UNL1        0.2637
     18 O          62.6722   85.5108    9.6355 O.2     1  UNL1       -0.2685
     19 N          60.8639   86.5442   11.1887 N.am    1  UNL1       -0.2982
     20 H          60.4491   86.6256   12.0778 H       1  UNL1        0.1498
     21 C          63.5878   84.7735   14.5417 C.ar    1  UNL1        0.1898
     22 N          63.6725   83.2782   14.4589 N.ar    1  UNL1       -0.2256
     23 C          63.2131   82.5684   13.2199 C.ar    1  UNL1        0.0632
     24 C          63.2979   81.0730   13.1371 C.3     1  UNL1        0.0522
     25 C          62.6690   83.3539   12.0637 C.ar    1  UNL1        0.0386
     26 C          62.5843   84.8492   12.1465 C.ar    1  UNL1        0.1377
     27 N          63.0437   85.5590   13.3855 N.ar    1  UNL1       -0.2166
     28 C          63.0488   85.9028   16.8185 C.3     1  UNL1        0.0772
     29 S          64.0472   85.4833   15.7807 S.3     1  UNL1       -0.0748
@<TRIPOS>BOND
     1    28    29    1
     2    29    21    1
     3    21    22   ar
     4    22    23   ar
     5    23    24    1
     6    23    25   ar
     7    25    26   ar
     8    26    17    1
     9    17    18    2
    10    17    19   am
    11    19    16    1
    12    16     1    1
    13     1     2    1
    14     2     3    1
    15     3     4    1
    16     4     5    1
    17     5     8    1
    18     8     9   ar
    19     9    10   ar
    20    10    11   ar
    21    11    12   ar
    22    12    13    1
    23    12    14   ar
    24    14    15    1
    25     5     6    1
    26     6     7    1
    27    26    27   ar
    28    27    21   ar
    29     7     2    1
    30    14     8   ar
    31    19    20    1
