@<TRIPOS>MOLECULE
*****
 30 32 0 0 0
SMALL
GASTEIGER

@<TRIPOS>ATOM
      1 N          62.4154   90.3476   11.4516 N.am    1  UNL1       -0.2438
      2 C          62.8596   91.2292   10.3222 C.3     1  UNL1        0.1009
      3 C          64.1412   92.0008   10.4324 C.3     1  UNL1        0.0662
      4 C          64.9786   91.8908   11.6720 C.3     1  UNL1        0.1602
      5 O          64.5345   91.0092   12.8014 O.3     1  UNL1       -0.4374
      6 C          63.2529   90.2376   12.6912 C.2     1  UNL1        0.4051
      7 O          62.8087   89.3560   13.8206 O.2     1  UNL1       -0.2262
      8 C          65.8144   92.8499   10.8772 C.ar    1  UNL1        0.0140
      9 C          67.0435   92.3640   10.1678 C.ar    1  UNL1        0.0014
     10 C          67.8793   93.3231    9.3731 C.ar    1  UNL1        0.0294
     11 C          67.4860   94.7681    9.2878 C.ar    1  UNL1        0.1401
     12 F          68.3218   95.7272    8.4931 F       1  UNL1       -0.2042
     13 C          66.2569   95.2540    9.9972 C.ar    1  UNL1        0.0294
     14 C          65.4211   94.2949   10.7920 C.ar    1  UNL1        0.0014
     15 C          60.0009   89.8656   12.2809 C.3     1  UNL1        0.0265
     16 C          61.1338   89.5760   11.3414 C.3     1  UNL1        0.1011
     17 C          60.9851   88.5149   10.2916 C.ar    1  UNL1       -0.0040
     18 C          60.1508   88.7771    9.0730 C.ar    1  UNL1        0.0004
     19 C          60.0022   87.7160    8.0233 C.ar    1  UNL1        0.0368
     20 C          60.6879   86.3926    8.1923 C.ar    1  UNL1        0.1443
     21 C          61.5222   86.1304    9.4109 C.ar    1  UNL1        0.0368
     22 C          61.6708   87.1915   10.4606 C.ar    1  UNL1        0.0004
     23 O          60.5392   85.3314    7.1426 O.3     1  UNL1       -0.4236
     24 C          61.7574   84.7196    6.5168 C.3     1  UNL1        0.5087
     25 F          63.0764   84.7786    7.2289 F       1  UNL1       -0.1550
     26 F          61.6568   84.0487    5.1790 F       1  UNL1       -0.1550
     27 C          66.1064   92.1139   12.6356 C.3     1  UNL1        0.0762
     28 C          65.8140   92.4814   14.0602 C.3     1  UNL1        0.1411
     29 O          66.0928   93.8721   14.5484 O.3     1  UNL1       -0.3819
     30 H          67.0489   94.0351   14.5316 H       1  UNL1        0.2104
@<TRIPOS>BOND
     1    16    15    1
     2    16    17    1
     3    17    18   ar
     4    18    19   ar
     5    19    20   ar
     6    20    23    1
     7    23    24    1
     8    24    25    1
     9    24    26    1
    10    20    21   ar
    11    21    22   ar
    12    16     1    1
    13     1     2    1
    14     2     3    1
    15     3     4    1
    16     4    27    1
    17    27    28    1
    18    28    29    1
    19     4     8    1
    20     8     9   ar
    21     9    10   ar
    22    10    11   ar
    23    11    12    1
    24    11    13   ar
    25    13    14   ar
    26     4     5    1
    27     5     6    1
    28     6     7    2
    29    22    17   ar
    30     6     1   am
    31    14     8   ar
    32    29    30    1
@<TRIPOS>MOLECULE
*****
 30 32 0 0 0
SMALL
GASTEIGER

@<TRIPOS>ATOM
      1 N          62.9892   90.2979   11.6571 N.am    1  UNL1       -0.2438
      2 C          63.4048   91.1116   10.4676 C.3     1  UNL1        0.1009
      3 C          64.5159   92.1114   10.5940 C.3     1  UNL1        0.0662
      4 C          65.2112   92.2975   11.9100 C.3     1  UNL1        0.1602
      5 O          64.7956   91.4838   13.0996 O.3     1  UNL1       -0.4374
      6 C          63.6846   90.4839   12.9732 C.2     1  UNL1        0.4051
      7 O          63.2689   89.6702   14.1627 O.2     1  UNL1       -0.2262
      8 C          65.9585   93.2964   11.0770 C.ar    1  UNL1        0.0140
      9 C          66.9276   92.8268   10.0328 C.ar    1  UNL1        0.0014
     10 C          67.6749   93.8256    9.1998 C.ar    1  UNL1        0.0294
     11 C          67.4531   95.2940    9.4110 C.ar    1  UNL1        0.1401
     12 F          68.2004   96.2929    8.5780 F       1  UNL1       -0.2042
     13 C          66.4840   95.7636   10.4552 C.ar    1  UNL1        0.0294
     14 C          65.7367   94.7647   11.2882 C.ar    1  UNL1        0.0014
     15 C          60.4814   89.6749   11.9267 C.3     1  UNL1        0.0265
     16 C          61.8782   89.2980   11.5307 C.3     1  UNL1        0.1011
     17 C          62.1640   87.9213   11.0082 C.ar    1  UNL1       -0.0040
     18 C          62.4925   86.8106   11.9613 C.ar    1  UNL1        0.0004
     19 C          62.7783   85.4339   11.4387 C.ar    1  UNL1        0.0368
     20 C          62.7356   85.1680    9.9631 C.ar    1  UNL1        0.1443
     21 C          62.4072   86.2787    9.0100 C.ar    1  UNL1        0.0368
     22 C          62.1214   87.6553    9.5326 C.ar    1  UNL1        0.0004
     23 O          63.0215   83.7912    9.4406 O.3     1  UNL1       -0.4236
     24 C          63.8639   82.8444   10.2430 C.3     1  UNL1        0.5087
     25 F          63.5097   81.3878   10.2982 F       1  UNL1       -0.1550
     26 F          65.0605   83.3541   10.9901 F       1  UNL1       -0.1550
     27 C          66.1662   92.8305   12.9367 C.3     1  UNL1        0.0762
     28 C          67.1082   91.8989   13.6398 C.3     1  UNL1        0.1411
     29 O          68.4825   91.6634   13.0866 O.3     1  UNL1       -0.3819
     30 H          68.4136   91.2100   12.2319 H       1  UNL1        0.2104
@<TRIPOS>BOND
     1    16    15    1
     2    16    17    1
     3    17    18   ar
     4    18    19   ar
     5    19    20   ar
     6    20    23    1
     7    23    24    1
     8    24    25    1
     9    24    26    1
    10    20    21   ar
    11    21    22   ar
    12    16     1    1
    13     1     2    1
    14     2     3    1
    15     3     4    1
    16     4    27    1
    17    27    28    1
    18    28    29    1
    19     4     8    1
    20     8     9   ar
    21     9    10   ar
    22    10    11   ar
    23    11    12    1
    24    11    13   ar
    25    13    14   ar
    26     4     5    1
    27     5     6    1
    28     6     7    2
    29    22    17   ar
    30     6     1   am
    31    14     8   ar
    32    29    30    1
@<TRIPOS>MOLECULE
*****
 30 32 0 0 0
SMALL
GASTEIGER

@<TRIPOS>ATOM
      1 N          63.0769   90.0678   11.9500 N.am    1  UNL1       -0.2438
      2 C          63.8353   89.8724   13.2292 C.3     1  UNL1        0.1009
      3 C          64.9723   90.7880   13.5745 C.3     1  UNL1        0.0662
      4 C          65.3507   91.8989   12.6404 C.3     1  UNL1        0.1602
      5 O          64.5923   92.0944   11.3611 O.3     1  UNL1       -0.4374
      6 C          63.4554   91.1788   11.0158 C.2     1  UNL1        0.4051
      7 O          62.6970   91.3742    9.7366 O.2     1  UNL1       -0.2262
      8 C          66.3627   92.1155   13.7263 C.ar    1  UNL1        0.0140
      9 C          65.9185   92.5655   15.0865 C.ar    1  UNL1        0.0014
     10 C          66.9305   92.7820   16.1724 C.ar    1  UNL1        0.0294
     11 C          68.3865   92.5486   15.8980 C.ar    1  UNL1        0.1401
     12 F          69.3985   92.7651   16.9839 F       1  UNL1       -0.2042
     13 C          68.8307   92.0986   14.5378 C.ar    1  UNL1        0.0294
     14 C          67.8188   91.8820   13.4519 C.ar    1  UNL1        0.0014
     15 C          60.5244   89.6058   11.8053 C.3     1  UNL1        0.0265
     16 C          61.9400   89.1523   11.6048 C.3     1  UNL1        0.1011
     17 C          62.2188   87.7832   11.0589 C.ar    1  UNL1       -0.0040
     18 C          62.1736   87.5422    9.5791 C.ar    1  UNL1        0.0004
     19 C          62.4524   86.1731    9.0334 C.ar    1  UNL1        0.0368
     20 C          62.7763   85.0450    9.9674 C.ar    1  UNL1        0.1443
     21 C          62.8214   85.2860   11.4472 C.ar    1  UNL1        0.0368
     22 C          62.5427   86.6550   11.9930 C.ar    1  UNL1        0.0004
     23 O          63.0551   83.6759    9.4216 O.3     1  UNL1       -0.4236
     24 C          63.8169   82.6808   10.2457 C.3     1  UNL1        0.5087
     25 F          65.0877   83.0897   10.9298 F       1  UNL1       -0.1550
     26 F          63.3081   81.2767   10.3857 F       1  UNL1       -0.1550
     27 C          66.0807   93.0851   12.0834 C.3     1  UNL1        0.0762
     28 C          66.2774   93.2171   10.6023 C.3     1  UNL1        0.1411
     29 O          65.6466   94.3581    9.8606 O.3     1  UNL1       -0.3819
     30 H          64.6812   94.2678    9.8887 H       1  UNL1        0.2104
@<TRIPOS>BOND
     1    16    15    1
     2    16    17    1
     3    17    18   ar
     4    18    19   ar
     5    19    20   ar
     6    20    23    1
     7    23    24    1
     8    24    25    1
     9    24    26    1
    10    20    21   ar
    11    21    22   ar
    12    16     1    1
    13     1     2    1
    14     2     3    1
    15     3     4    1
    16     4    27    1
    17    27    28    1
    18    28    29    1
    19     4     8    1
    20     8     9   ar
    21     9    10   ar
    22    10    11   ar
    23    11    12    1
    24    11    13   ar
    25    13    14   ar
    26     4     5    1
    27     5     6    1
    28     6     7    2
    29    22    17   ar
    30     6     1   am
    31    14     8   ar
    32    29    30    1
@<TRIPOS>MOLECULE
*****
 30 32 0 0 0
SMALL
GASTEIGER

@<TRIPOS>ATOM
      1 N          63.6162   89.5648   12.9974 N.am    1  UNL1       -0.2438
      2 C          62.7952   89.7964   11.7636 C.3     1  UNL1        0.1009
      3 C          62.2104   88.6309   11.0222 C.3     1  UNL1        0.0662
      4 C          62.4465   87.2339   11.5146 C.3     1  UNL1        0.1602
      5 O          63.2675   87.0023   12.7484 O.3     1  UNL1       -0.4374
      6 C          63.8524   88.1677   13.4898 C.2     1  UNL1        0.4051
      7 O          64.6734   87.9361   14.7236 O.2     1  UNL1       -0.2262
      8 C          61.6061   86.9455   10.3060 C.ar    1  UNL1        0.0140
      9 C          60.2398   87.5519   10.1805 C.ar    1  UNL1        0.0014
     10 C          59.3994   87.2635    8.9719 C.ar    1  UNL1        0.0294
     11 C          59.9254   86.3688    7.8889 C.ar    1  UNL1        0.1401
     12 F          59.0850   86.0804    6.6803 F       1  UNL1       -0.2042
     13 C          61.2916   85.7625    8.0144 C.ar    1  UNL1        0.0294
     14 C          62.1320   86.0509    9.2230 C.ar    1  UNL1        0.0014
     15 C          64.0534   90.8219   15.2286 C.3     1  UNL1        0.0265
     16 C          64.2011   90.7302   13.7387 C.3     1  UNL1        0.1011
     17 C          64.9338   91.8040   12.9902 C.ar    1  UNL1       -0.0040
     18 C          64.7242   91.9655   11.5138 C.ar    1  UNL1        0.0004
     19 C          65.4568   93.0393   10.7653 C.ar    1  UNL1        0.0368
     20 C          66.3991   93.9515   11.4933 C.ar    1  UNL1        0.1443
     21 C          66.6087   93.7900   12.9697 C.ar    1  UNL1        0.0368
     22 C          65.8760   92.7163   13.7182 C.ar    1  UNL1        0.0004
     23 O          67.1317   95.0253   10.7447 O.3     1  UNL1       -0.4236
     24 C          67.7160   94.7331    9.3945 C.3     1  UNL1        0.5087
     25 F          68.8581   93.7694    9.2639 F       1  UNL1       -0.1550
     26 F          67.1582   95.4046    8.1746 F       1  UNL1       -0.1550
     27 C          62.3908   85.7367   11.5873 C.3     1  UNL1        0.0762
     28 C          63.0660   85.0149   12.7155 C.3     1  UNL1        0.1411
     29 O          62.3272   84.7692   13.9976 O.3     1  UNL1       -0.3819
     30 H          62.1447   85.6165   14.4331 H       1  UNL1        0.2104
@<TRIPOS>BOND
     1    16    15    1
     2    16    17    1
     3    17    18   ar
     4    18    19   ar
     5    19    20   ar
     6    20    23    1
     7    23    24    1
     8    24    25    1
     9    24    26    1
    10    20    21   ar
    11    21    22   ar
    12    16     1    1
    13     1     2    1
    14     2     3    1
    15     3     4    1
    16     4    27    1
    17    27    28    1
    18    28    29    1
    19     4     8    1
    20     8     9   ar
    21     9    10   ar
    22    10    11   ar
    23    11    12    1
    24    11    13   ar
    25    13    14   ar
    26     4     5    1
    27     5     6    1
    28     6     7    2
    29    22    17   ar
    30     6     1   am
    31    14     8   ar
    32    29    30    1
@<TRIPOS>MOLECULE
*****
 30 32 0 0 0
SMALL
GASTEIGER

@<TRIPOS>ATOM
      1 N          63.8049   88.9092   13.5841 N.am    1  UNL1       -0.2438
      2 C          64.3112   87.6903   14.2967 C.3     1  UNL1        0.1009
      3 C          63.9242   86.3240   13.8133 C.3     1  UNL1        0.0662
      4 C          63.0310   86.1767   12.6174 C.3     1  UNL1        0.1602
      5 O          62.5246   87.3956   11.9047 O.3     1  UNL1       -0.4374
      6 C          62.9116   88.7619   12.3881 C.2     1  UNL1        0.4051
      7 O          62.4053   89.9808   11.6754 O.2     1  UNL1       -0.2262
      8 C          63.2540   84.7323   12.9554 C.ar    1  UNL1        0.0140
      9 C          62.6673   84.1565   14.2101 C.ar    1  UNL1        0.0014
     10 C          62.8902   82.7122   14.5482 C.ar    1  UNL1        0.0294
     11 C          63.6999   81.8438   13.6315 C.ar    1  UNL1        0.1401
     12 F          63.9229   80.3995   13.9696 F       1  UNL1       -0.2042
     13 C          64.2866   82.4196   12.3768 C.ar    1  UNL1        0.0294
     14 C          64.0636   83.8639   12.0388 C.ar    1  UNL1        0.0014
     15 C          63.7238   90.7569   15.4087 C.3     1  UNL1        0.0265
     16 C          64.1919   90.2754   14.0674 C.3     1  UNL1        0.1011
     17 C          65.0469   91.1602   13.2094 C.ar    1  UNL1       -0.0040
     18 C          66.4393   91.5085   13.6450 C.ar    1  UNL1        0.0004
     19 C          67.2943   92.3933   12.7870 C.ar    1  UNL1        0.0368
     20 C          66.7569   92.9296   11.4934 C.ar    1  UNL1        0.1443
     21 C          65.3645   92.5813   11.0578 C.ar    1  UNL1        0.0368
     22 C          64.5095   91.6966   11.9158 C.ar    1  UNL1        0.0004
     23 O          67.6120   93.8144   10.6354 O.3     1  UNL1       -0.4236
     24 C          68.0201   93.3623    9.2646 C.3     1  UNL1        0.5087
     25 F          67.7103   94.2155    8.0703 F       1  UNL1       -0.1550
     26 F          68.7378   92.0571    9.0881 F       1  UNL1       -0.1550
     27 C          62.2151   85.5277   11.5388 C.3     1  UNL1        0.0762
     28 C          61.5386   86.3718   10.4997 C.3     1  UNL1        0.1411
     29 O          62.2676   86.7399    9.2414 O.3     1  UNL1       -0.3819
     30 H          63.0155   87.3181    9.4585 H       1  UNL1        0.2104
@<TRIPOS>BOND
     1    16    15    1
     2    16    17    1
     3    17    18   ar
     4    18    19   ar
     5    19    20   ar
     6    20    23    1
     7    23    24    1
     8    24    25    1
     9    24    26    1
    10    20    21   ar
    11    21    22   ar
    12    16     1    1
    13     1     2    1
    14     2     3    1
    15     3     4    1
    16     4    27    1
    17    27    28    1
    18    28    29    1
    19     4     8    1
    20     8     9   ar
    21     9    10   ar
    22    10    11   ar
    23    11    12    1
    24    11    13   ar
    25    13    14   ar
    26     4     5    1
    27     5     6    1
    28     6     7    2
    29    22    17   ar
    30     6     1   am
    31    14     8   ar
    32    29    30    1
@<TRIPOS>MOLECULE
*****
 30 32 0 0 0
SMALL
GASTEIGER

@<TRIPOS>ATOM
      1 N          62.7928   88.2174   12.3179 N.am    1  UNL1       -0.2438
      2 C          62.4384   87.1775   11.2966 C.3     1  UNL1        0.1009
      3 C          62.7963   85.7404   11.5342 C.3     1  UNL1        0.0662
      4 C          63.5086   85.3431   12.7930 C.3     1  UNL1        0.1602
      5 O          63.8630   86.3829   13.8144 O.3     1  UNL1       -0.4374
      6 C          63.5051   87.8201   13.5768 C.2     1  UNL1        0.4051
      7 O          63.8595   88.8600   14.5981 O.2     1  UNL1       -0.2262
      8 C          63.3869   84.0036   12.1288 C.ar    1  UNL1        0.0140
      9 C          62.5895   82.9130   12.7805 C.ar    1  UNL1        0.0014
     10 C          62.4678   81.5736   12.1163 C.ar    1  UNL1        0.0294
     11 C          63.1435   81.3248   10.8004 C.ar    1  UNL1        0.1401
     12 F          63.0218   79.9854   10.1362 F       1  UNL1       -0.2042
     13 C          63.9409   82.4155   10.1487 C.ar    1  UNL1        0.0294
     14 C          64.0626   83.7549   10.8130 C.ar    1  UNL1        0.0014
     15 C          60.9952   90.0600   11.9664 C.3     1  UNL1        0.0265
     16 C          62.4349   89.6546   12.0803 C.3     1  UNL1        0.1011
     17 C          63.5167   90.6863   11.9566 C.ar    1  UNL1       -0.0040
     18 C          63.8395   91.2775   10.6164 C.ar    1  UNL1        0.0004
     19 C          64.9213   92.3092   10.4928 C.ar    1  UNL1        0.0368
     20 C          65.6802   92.7497   11.7093 C.ar    1  UNL1        0.1443
     21 C          65.3574   92.1585   13.0495 C.ar    1  UNL1        0.0368
     22 C          64.2756   91.1268   13.1732 C.ar    1  UNL1        0.0004
     23 O          66.7621   93.7815   11.5856 O.3     1  UNL1       -0.4236
     24 C          66.5991   94.9285   10.6330 C.3     1  UNL1        0.5087
     25 F          65.2781   95.6307   10.5235 F       1  UNL1       -0.1550
     26 F          67.7571   95.3735    9.7897 F       1  UNL1       -0.1550
     27 C          64.1787   84.4806   13.8213 C.3     1  UNL1        0.0762
     28 C          65.1656   85.0824   14.7771 C.3     1  UNL1        0.1411
     29 O          66.6369   84.8941   14.5536 O.3     1  UNL1       -0.3819
     30 H          66.8622   83.9563   14.6567 H       1  UNL1        0.2104
@<TRIPOS>BOND
     1    16    15    1
     2    16    17    1
     3    17    18   ar
     4    18    19   ar
     5    19    20   ar
     6    20    23    1
     7    23    24    1
     8    24    25    1
     9    24    26    1
    10    20    21   ar
    11    21    22   ar
    12    16     1    1
    13     1     2    1
    14     2     3    1
    15     3     4    1
    16     4    27    1
    17    27    28    1
    18    28    29    1
    19     4     8    1
    20     8     9   ar
    21     9    10   ar
    22    10    11   ar
    23    11    12    1
    24    11    13   ar
    25    13    14   ar
    26     4     5    1
    27     5     6    1
    28     6     7    2
    29    22    17   ar
    30     6     1   am
    31    14     8   ar
    32    29    30    1
@<TRIPOS>MOLECULE
*****
 30 32 0 0 0
SMALL
GASTEIGER

@<TRIPOS>ATOM
      1 N          62.5076   90.2604   11.9911 N.am    1  UNL1       -0.2438
      2 C          63.1874   90.1417   13.3229 C.3     1  UNL1        0.1009
      3 C          64.4736   90.8707   13.5761 C.3     1  UNL1        0.0662
      4 C          65.0801   91.7185   12.4975 C.3     1  UNL1        0.1602
      5 O          64.4003   91.8373   11.1656 O.3     1  UNL1       -0.4374
      6 C          63.1141   91.1083   10.9124 C.2     1  UNL1        0.4051
      7 O          62.4344   91.2270    9.5806 O.2     1  UNL1       -0.2262
      8 C          66.0926   91.9183   13.5861 C.ar    1  UNL1        0.0140
      9 C          67.5548   91.7678   13.2872 C.ar    1  UNL1        0.0014
     10 C          68.5673   91.9675   14.3757 C.ar    1  UNL1        0.0294
     11 C          68.1176   92.3178   15.7632 C.ar    1  UNL1        0.1401
     12 F          69.1301   92.5176   16.8518 F       1  UNL1       -0.2042
     13 C          66.6554   92.4683   16.0621 C.ar    1  UNL1        0.0294
     14 C          65.6429   92.2686   14.9736 C.ar    1  UNL1        0.0014
     15 C          60.0205   89.8102   12.5923 C.3     1  UNL1        0.0265
     16 C          61.2214   89.5314   11.7378 C.3     1  UNL1        0.1011
     17 C          61.1361   88.5235   10.6301 C.ar    1  UNL1       -0.0040
     18 C          60.2008   88.7509    9.4797 C.ar    1  UNL1        0.0004
     19 C          60.1155   87.7430    8.3720 C.ar    1  UNL1        0.0368
     20 C          60.9656   86.5079    8.4147 C.ar    1  UNL1        0.1443
     21 C          61.9009   86.2806    9.5651 C.ar    1  UNL1        0.0368
     22 C          61.9862   87.2884   10.6728 C.ar    1  UNL1        0.0004
     23 O          60.8803   85.5001    7.3070 O.3     1  UNL1       -0.4236
     24 C          62.1305   84.8702    6.7682 C.3     1  UNL1        0.5087
     25 F          63.3997   84.9207    7.5661 F       1  UNL1       -0.1550
     26 F          62.1115   84.1897    5.4315 F       1  UNL1       -0.1550
     27 C          66.0382   92.6357   11.7970 C.3     1  UNL1        0.0762
     28 C          66.0264   92.7314   10.3001 C.3     1  UNL1        0.1411
     29 O          65.8888   94.0689    9.6351 O.3     1  UNL1       -0.3819
     30 H          65.0125   94.4374    9.8282 H       1  UNL1        0.2104
@<TRIPOS>BOND
     1    16    15    1
     2    16    17    1
     3    17    18   ar
     4    18    19   ar
     5    19    20   ar
     6    20    23    1
     7    23    24    1
     8    24    25    1
     9    24    26    1
    10    20    21   ar
    11    21    22   ar
    12    16     1    1
    13     1     2    1
    14     2     3    1
    15     3     4    1
    16     4    27    1
    17    27    28    1
    18    28    29    1
    19     4     8    1
    20     8     9   ar
    21     9    10   ar
    22    10    11   ar
    23    11    12    1
    24    11    13   ar
    25    13    14   ar
    26     4     5    1
    27     5     6    1
    28     6     7    2
    29    22    17   ar
    30     6     1   am
    31    14     8   ar
    32    29    30    1
@<TRIPOS>MOLECULE
*****
 30 32 0 0 0
SMALL
GASTEIGER

@<TRIPOS>ATOM
      1 N          63.9628   88.9344   14.8943 N.am    1  UNL1       -0.2438
      2 C          64.1566   88.2982   13.5498 C.3     1  UNL1        0.1009
      3 C          63.9533   86.8215   13.3824 C.3     1  UNL1        0.0662
      4 C          63.5563   85.9809   14.5595 C.3     1  UNL1        0.1602
      5 O          63.3624   86.6171   15.9041 O.3     1  UNL1       -0.4374
      6 C          63.5657   88.0938   16.0715 C.2     1  UNL1        0.4051
      7 O          63.3718   88.7299   17.4160 O.2     1  UNL1       -0.2262
      8 C          63.6199   84.9255   13.4955 C.ar    1  UNL1        0.0140
      9 C          62.7884   85.0608   12.2544 C.ar    1  UNL1        0.0014
     10 C          62.8520   84.0054   11.1903 C.ar    1  UNL1        0.0294
     11 C          63.7471   82.8149   11.3674 C.ar    1  UNL1        0.1401
     12 F          63.8107   81.7595   10.3034 F       1  UNL1       -0.2042
     13 C          64.5786   82.6796   12.6085 C.ar    1  UNL1        0.0294
     14 C          64.5150   83.7350   13.6726 C.ar    1  UNL1        0.0014
     15 C          63.5790   91.1194   16.2464 C.3     1  UNL1        0.0265
     16 C          64.1660   90.4111   15.0616 C.3     1  UNL1        0.1011
     17 C          64.9562   91.1795   14.0441 C.ar    1  UNL1       -0.0040
     18 C          64.3044   91.6253   12.7689 C.ar    1  UNL1        0.0004
     19 C          65.0946   92.3937   11.7515 C.ar    1  UNL1        0.0368
     20 C          66.5367   92.7161   12.0093 C.ar    1  UNL1        0.1443
     21 C          67.1885   92.2702   13.2846 C.ar    1  UNL1        0.0368
     22 C          66.3983   91.5019   14.3020 C.ar    1  UNL1        0.0004
     23 O          67.3269   93.4845   10.9919 O.3     1  UNL1       -0.4236
     24 C          67.8033   92.8045    9.7426 C.3     1  UNL1        0.5087
     25 F          67.9708   93.5923    8.4771 F       1  UNL1       -0.1550
     26 F          68.1123   91.3368    9.7588 F       1  UNL1       -0.1550
     27 C          63.1813   84.7738   15.3672 C.3     1  UNL1        0.0762
     28 C          61.7665   84.5914   15.8307 C.3     1  UNL1        0.1411
     29 O          61.1032   85.6567   16.6525 O.3     1  UNL1       -0.3819
     30 H          61.5479   85.7259   17.5118 H       1  UNL1        0.2104
@<TRIPOS>BOND
     1    16    15    1
     2    16    17    1
     3    17    18   ar
     4    18    19   ar
     5    19    20   ar
     6    20    23    1
     7    23    24    1
     8    24    25    1
     9    24    26    1
    10    20    21   ar
    11    21    22   ar
    12    16     1    1
    13     1     2    1
    14     2     3    1
    15     3     4    1
    16     4    27    1
    17    27    28    1
    18    28    29    1
    19     4     8    1
    20     8     9   ar
    21     9    10   ar
    22    10    11   ar
    23    11    12    1
    24    11    13   ar
    25    13    14   ar
    26     4     5    1
    27     5     6    1
    28     6     7    2
    29    22    17   ar
    30     6     1   am
    31    14     8   ar
    32    29    30    1
@<TRIPOS>MOLECULE
*****
 30 32 0 0 0
SMALL
GASTEIGER

@<TRIPOS>ATOM
      1 N          62.0651   88.8789   10.9354 N.am    1  UNL1       -0.2438
      2 C          62.6986   87.8738   11.8511 C.3     1  UNL1        0.1009
      3 C          62.7369   86.4253   11.4632 C.3     1  UNL1        0.0662
      4 C          62.1417   85.9819   10.1597 C.3     1  UNL1        0.1602
      5 O          61.5082   86.9870    9.2440 O.3     1  UNL1       -0.4374
      6 C          61.4699   88.4355    9.6318 C.2     1  UNL1        0.4051
      7 O          60.8364   89.4406    8.7162 O.2     1  UNL1       -0.2262
      8 C          62.6270   84.6638   10.6862 C.ar    1  UNL1        0.0140
      9 C          63.5203   83.8026    9.8434 C.ar    1  UNL1        0.0014
     10 C          64.0056   82.4845   10.3699 C.ar    1  UNL1        0.0294
     11 C          63.5976   82.0277   11.7391 C.ar    1  UNL1        0.1401
     12 F          64.0829   80.7096   12.2656 F       1  UNL1       -0.2042
     13 C          62.7043   82.8889   12.5819 C.ar    1  UNL1        0.0294
     14 C          62.2190   84.2070   12.0554 C.ar    1  UNL1        0.0014
     15 C          60.7312   91.0819   11.2781 C.3     1  UNL1        0.0265
     16 C          62.0268   90.3274   11.3233 C.3     1  UNL1        0.1011
     17 C          63.2842   91.0213   11.7563 C.ar    1  UNL1       -0.0040
     18 C          64.0791   91.8200   10.7662 C.ar    1  UNL1        0.0004
     19 C          65.3364   92.5140   11.1992 C.ar    1  UNL1        0.0368
     20 C          65.7989   92.4092   12.6223 C.ar    1  UNL1        0.1443
     21 C          65.0041   91.6105   13.6123 C.ar    1  UNL1        0.0368
     22 C          63.7467   90.9166   13.1793 C.ar    1  UNL1        0.0004
     23 O          67.0563   93.1031   13.0553 O.3     1  UNL1       -0.4236
     24 C          68.1935   92.3082   13.6251 C.3     1  UNL1        0.5087
     25 F          68.5285   92.4172   15.0832 F       1  UNL1       -0.1550
     26 F          68.9959   91.4042   12.7368 F       1  UNL1       -0.1550
     27 C          61.7150   85.0807    9.0390 C.3     1  UNL1        0.0762
     28 C          61.2268   85.6686    7.7483 C.3     1  UNL1        0.1411
     29 O          59.7805   85.5483    7.3689 O.3     1  UNL1       -0.3819
     30 H          59.5632   84.6156    7.2149 H       1  UNL1        0.2104
@<TRIPOS>BOND
     1    16    15    1
     2    16    17    1
     3    17    18   ar
     4    18    19   ar
     5    19    20   ar
     6    20    23    1
     7    23    24    1
     8    24    25    1
     9    24    26    1
    10    20    21   ar
    11    21    22   ar
    12    16     1    1
    13     1     2    1
    14     2     3    1
    15     3     4    1
    16     4    27    1
    17    27    28    1
    18    28    29    1
    19     4     8    1
    20     8     9   ar
    21     9    10   ar
    22    10    11   ar
    23    11    12    1
    24    11    13   ar
    25    13    14   ar
    26     4     5    1
    27     5     6    1
    28     6     7    2
    29    22    17   ar
    30     6     1   am
    31    14     8   ar
    32    29    30    1
