@<TRIPOS>MOLECULE
*****
 30 35 0 0 0
SMALL
GASTEIGER

@<TRIPOS>ATOM
      1 C          64.4920   89.2184   15.0430 C.2     1  UNL1       -0.0378
      2 C          64.7190   88.0389   14.1444 C.2     1  UNL1       -0.0080
      3 C          64.1235   86.7065   14.4910 C.2     1  UNL1        0.0022
      4 C          63.3011   86.5536   15.7362 C.2     1  UNL1        0.0350
      5 C          62.5927   85.3736   16.3325 C.2     1  UNL1        0.1040
      6 N          61.9279   85.8237   17.5996 N.2     1  UNL1       -0.1483
      7 N          62.2256   87.2820   17.7863 N.2     1  UNL1       -0.1520
      8 C          63.0742   87.7331   16.6347 C.2     1  UNL1        0.0860
      9 C          63.6697   89.0655   16.2880 C.3     1  UNL1        0.0697
     10 O          66.6895   93.9266   14.0042 O.2     1  UNL1       -0.2744
     11 C          65.7792   93.0063   13.2462 C.2     1  UNL1        0.2293
     12 N          65.2293   93.2455   11.8713 N.am    1  UNL1       -0.2839
     13 C          64.3692   92.0723   11.5055 C.ar    1  UNL1        0.0467
     14 C          63.5718   91.7575   10.2747 C.ar    1  UNL1        0.0144
     15 C          62.7926   90.4784   10.1927 C.ar    1  UNL1        0.0013
     16 C          62.8109   89.5141   11.3416 C.ar    1  UNL1       -0.0002
     17 C          63.6083   89.8289   12.5724 C.ar    1  UNL1       -0.0026
     18 C          64.3875   91.1080   12.6543 C.ar    1  UNL1       -0.0008
     19 C          65.2589   91.6853   13.7301 C.3     1  UNL1        0.0927
     20 C          65.9476   91.7240   15.0621 C.3     1  UNL1        0.0179
     21 C          65.0876   90.5508   14.6963 C.3     1  UNL1        0.0315
     22 H          65.4026   94.0340   11.3079 H       1  UNL1        0.1549
     23 C          62.5555   83.9868   15.7619 C.2     1  UNL1        0.0209
     24 C          62.4987   83.7884   14.2762 C.2     1  UNL1        0.0017
     25 C          62.4615   82.4016   13.7057 C.ar    1  UNL1        0.0031
     26 C          63.1990   82.0927   12.4365 C.ar    1  UNL1        0.0207
     27 C          63.1618   80.7059   11.8660 C.ar    1  UNL1        0.0989
     28 N          62.3872   79.6280   12.5646 N.ar    1  UNL1       -0.2423
     29 C          61.6497   79.9369   13.8338 C.ar    1  UNL1        0.0989
     30 C          61.6869   81.3236   14.4043 C.ar    1  UNL1        0.0207
@<TRIPOS>BOND
     1    10    11    2
     2    11    12   am
     3    12    13    1
     4    13    14   ar
     5    14    15   ar
     6    15    16   ar
     7    16    17   ar
     8    17    18   ar
     9    18    19    1
    10    19    20    1
    11    20    21    1
    12    21     1    1
    13     1     2    2
    14     2     3    1
    15     3     4    2
    16     4     5    1
    17     5    23    1
    18    23    24    2
    19    24    25    1
    20    25    26   ar
    21    26    27   ar
    22    27    28   ar
    23    28    29   ar
    24    29    30   ar
    25     5     6    2
    26     6     7    1
    27     7     8    2
    28     8     9    1
    29    19    11    1
    30     9     1    1
    31    18    13   ar
    32    21    19    1
    33     8     4    1
    34    30    25   ar
    35    12    22    1
@<TRIPOS>MOLECULE
*****
 30 35 0 0 0
SMALL
GASTEIGER

@<TRIPOS>ATOM
      1 C          64.2903   89.9062   13.7363 C.2     1  UNL1       -0.0378
      2 C          64.5647   88.4664   14.0557 C.2     1  UNL1       -0.0080
      3 C          63.8316   87.3825   13.3225 C.2     1  UNL1        0.0022
      4 C          62.8239   87.7384   12.2698 C.2     1  UNL1        0.0350
      5 C          61.9529   86.8938   11.3879 C.2     1  UNL1        0.1040
      6 N          61.1401   87.8114   10.5233 N.2     1  UNL1       -0.1483
      7 N          61.5089   89.2232   10.8711 N.2     1  UNL1       -0.1520
      8 C          62.5495   89.1781   11.9504 C.2     1  UNL1        0.0860
      9 C          63.2827   90.2620   12.6837 C.3     1  UNL1        0.0697
     10 O          66.8483   93.6307   16.5039 O.2     1  UNL1       -0.2744
     11 C          66.5183   93.4470   15.0522 C.2     1  UNL1        0.2293
     12 N          66.8821   94.3852   13.9398 N.am    1  UNL1       -0.2839
     13 C          66.3551   93.8110   12.6581 C.ar    1  UNL1        0.0467
     14 C          66.4141   94.2986   11.2408 C.ar    1  UNL1        0.0144
     15 C          65.7835   93.4930   10.1438 C.ar    1  UNL1        0.0013
     16 C          65.0941   92.1999   10.4641 C.ar    1  UNL1       -0.0002
     17 C          65.0351   91.7124   11.8814 C.ar    1  UNL1       -0.0026
     18 C          65.6657   92.5180   12.9784 C.ar    1  UNL1       -0.0008
     19 C          65.7665   92.2930   14.4581 C.3     1  UNL1        0.0927
     20 C          65.5504   91.5642   15.7512 C.3     1  UNL1        0.0179
     21 C          65.0235   90.9900   14.4696 C.3     1  UNL1        0.0315
     22 H          67.3794   95.2296   14.0343 H       1  UNL1        0.1549
     23 C          61.9033   85.3947   11.3730 C.2     1  UNL1        0.0209
     24 C          62.7472   84.6068   12.3307 C.2     1  UNL1        0.0017
     25 C          62.6976   83.1077   12.3159 C.ar    1  UNL1        0.0031
     26 C          63.1334   82.3549   11.0938 C.ar    1  UNL1        0.0207
     27 C          63.0838   80.8558   11.0790 C.ar    1  UNL1        0.0989
     28 N          62.5984   80.1094   12.2861 N.ar    1  UNL1       -0.2423
     29 C          62.1626   80.8622   13.5083 C.ar    1  UNL1        0.0989
     30 C          62.2121   82.3613   13.5231 C.ar    1  UNL1        0.0207
@<TRIPOS>BOND
     1    10    11    2
     2    11    12   am
     3    12    13    1
     4    13    14   ar
     5    14    15   ar
     6    15    16   ar
     7    16    17   ar
     8    17    18   ar
     9    18    19    1
    10    19    20    1
    11    20    21    1
    12    21     1    1
    13     1     2    2
    14     2     3    1
    15     3     4    2
    16     4     5    1
    17     5    23    1
    18    23    24    2
    19    24    25    1
    20    25    26   ar
    21    26    27   ar
    22    27    28   ar
    23    28    29   ar
    24    29    30   ar
    25     5     6    2
    26     6     7    1
    27     7     8    2
    28     8     9    1
    29    19    11    1
    30     9     1    1
    31    18    13   ar
    32    21    19    1
    33     8     4    1
    34    30    25   ar
    35    12    22    1
@<TRIPOS>MOLECULE
*****
 30 35 0 0 0
SMALL
GASTEIGER

@<TRIPOS>ATOM
      1 C          61.5753   92.8181    2.6039 C.2     1  UNL1       -0.0378
      2 C          62.2815   91.7129    3.3320 C.2     1  UNL1       -0.0080
      3 C          61.5448   90.8960    4.3518 C.2     1  UNL1        0.0022
      4 C          60.1019   91.1842    4.6434 C.2     1  UNL1        0.0350
      5 C          59.1233   90.5524    5.5884 C.2     1  UNL1        0.1040
      6 N          57.8123   91.2670    5.4445 N.2     1  UNL1       -0.1483
      7 N          57.9808   92.3405    4.4104 N.2     1  UNL1       -0.1520
      8 C          59.3957   92.2893    3.9153 C.2     1  UNL1        0.0860
      9 C          60.1325   93.1062    2.8955 C.3     1  UNL1        0.0697
     10 O          64.3212   95.7473   -0.8537 O.2     1  UNL1       -0.2744
     11 C          63.0497   94.9552   -0.9306 C.2     1  UNL1        0.2293
     12 N          62.1782   94.8019   -2.1418 N.am    1  UNL1       -0.2839
     13 C          61.0164   93.9292   -1.7695 C.ar    1  UNL1        0.0467
     14 C          59.8386   93.4363   -2.5567 C.ar    1  UNL1        0.0144
     15 C          58.8142   92.5573   -1.9026 C.ar    1  UNL1        0.0013
     16 C          58.9675   92.1712   -0.4613 C.ar    1  UNL1       -0.0002
     17 C          60.1453   92.6642    0.3259 C.ar    1  UNL1       -0.0026
     18 C          61.1697   93.5432   -0.3282 C.ar    1  UNL1       -0.0008
     19 C          62.4264   94.1773    0.1903 C.3     1  UNL1        0.0927
     20 C          63.4739   94.5076    1.2119 C.3     1  UNL1        0.0179
     21 C          62.3121   93.6350    1.5841 C.3     1  UNL1        0.0315
     22 H          62.3404   95.2035   -3.0259 H       1  UNL1        0.1549
     23 C          59.4060   89.4071    6.5149 C.2     1  UNL1        0.0209
     24 C          60.0393   89.6616    7.8506 C.2     1  UNL1        0.0017
     25 C          60.3220   88.5162    8.7770 C.ar    1  UNL1        0.0031
     26 C          60.3147   88.7327   10.2613 C.ar    1  UNL1        0.0207
     27 C          60.5974   87.5873   11.1878 C.ar    1  UNL1        0.0989
     28 N          60.8874   86.2255   10.6299 N.ar    1  UNL1       -0.2423
     29 C          60.8948   86.0089    9.1456 C.ar    1  UNL1        0.0989
     30 C          60.6121   87.1543    8.2191 C.ar    1  UNL1        0.0207
@<TRIPOS>BOND
     1    10    11    2
     2    11    12   am
     3    12    13    1
     4    13    14   ar
     5    14    15   ar
     6    15    16   ar
     7    16    17   ar
     8    17    18   ar
     9    18    19    1
    10    19    20    1
    11    20    21    1
    12    21     1    1
    13     1     2    2
    14     2     3    1
    15     3     4    2
    16     4     5    1
    17     5    23    1
    18    23    24    2
    19    24    25    1
    20    25    26   ar
    21    26    27   ar
    22    27    28   ar
    23    28    29   ar
    24    29    30   ar
    25     5     6    2
    26     6     7    1
    27     7     8    2
    28     8     9    1
    29    19    11    1
    30     9     1    1
    31    18    13   ar
    32    21    19    1
    33     8     4    1
    34    30    25   ar
    35    12    22    1
@<TRIPOS>MOLECULE
*****
 30 35 0 0 0
SMALL
GASTEIGER

@<TRIPOS>ATOM
      1 C          64.5589   88.6961   15.1983 C.2     1  UNL1       -0.0378
      2 C          64.7916   87.5753   14.2288 C.2     1  UNL1       -0.0080
      3 C          64.1530   86.2381   14.4611 C.2     1  UNL1        0.0022
      4 C          63.2817   86.0216   15.6628 C.2     1  UNL1        0.0350
      5 C          62.5246   84.8222   16.1506 C.2     1  UNL1        0.1040
      6 N          61.8239   85.2016   17.4215 N.2     1  UNL1       -0.1483
      7 N          62.1482   86.6356   17.7191 N.2     1  UNL1       -0.1520
      8 C          63.0491   87.1424   16.6322 C.2     1  UNL1        0.0860
      9 C          63.6877   88.4796   16.3999 C.3     1  UNL1        0.0697
     10 O          66.9115   93.4009   14.5611 O.2     1  UNL1       -0.2744
     11 C          65.9573   92.5877   13.7375 C.2     1  UNL1        0.2293
     12 N          65.3966   92.9731   12.4007 N.am    1  UNL1       -0.2839
     13 C          64.4891   91.8699   11.9431 C.ar    1  UNL1        0.0467
     14 C          63.6629   91.6993   10.7029 C.ar    1  UNL1        0.0144
     15 C          62.8364   90.4615   10.5167 C.ar    1  UNL1        0.0013
     16 C          62.8361   89.3942   11.5708 C.ar    1  UNL1       -0.0002
     17 C          63.6623   89.5649   12.8110 C.ar    1  UNL1       -0.0026
     18 C          64.4888   90.8027   12.9972 C.ar    1  UNL1       -0.0008
     19 C          65.3962   91.2463   14.1062 C.3     1  UNL1        0.0927
     20 C          66.1051   91.1365   15.4235 C.3     1  UNL1        0.0179
     21 C          65.1976   90.0334   14.9660 C.3     1  UNL1        0.0315
     22 H          65.5903   93.8042   11.9098 H       1  UNL1        0.1549
     23 C          62.4764   83.4791   15.4844 C.2     1  UNL1        0.0209
     24 C          62.7264   83.3638   14.0099 C.2     1  UNL1        0.0017
     25 C          62.6783   82.0207   13.3438 C.ar    1  UNL1        0.0031
     26 C          62.4019   80.7902   14.1558 C.ar    1  UNL1        0.0207
     27 C          62.3538   79.4471   13.4897 C.ar    1  UNL1        0.0989
     28 N          62.5820   79.3344   12.0114 N.ar    1  UNL1       -0.2423
     29 C          62.8585   80.5650   11.1993 C.ar    1  UNL1        0.0989
     30 C          62.9066   81.9081   11.8654 C.ar    1  UNL1        0.0207
@<TRIPOS>BOND
     1    10    11    2
     2    11    12   am
     3    12    13    1
     4    13    14   ar
     5    14    15   ar
     6    15    16   ar
     7    16    17   ar
     8    17    18   ar
     9    18    19    1
    10    19    20    1
    11    20    21    1
    12    21     1    1
    13     1     2    2
    14     2     3    1
    15     3     4    2
    16     4     5    1
    17     5    23    1
    18    23    24    2
    19    24    25    1
    20    25    26   ar
    21    26    27   ar
    22    27    28   ar
    23    28    29   ar
    24    29    30   ar
    25     5     6    2
    26     6     7    1
    27     7     8    2
    28     8     9    1
    29    19    11    1
    30     9     1    1
    31    18    13   ar
    32    21    19    1
    33     8     4    1
    34    30    25   ar
    35    12    22    1
@<TRIPOS>MOLECULE
*****
 30 35 0 0 0
SMALL
GASTEIGER

@<TRIPOS>ATOM
      1 C          63.8357   91.0953   10.9652 C.2     1  UNL1       -0.0378
      2 C          64.1736   90.0466   11.9832 C.2     1  UNL1       -0.0080
      3 C          63.3926   88.7668   12.0291 C.2     1  UNL1        0.0022
      4 C          62.2737   88.5357   11.0570 C.2     1  UNL1        0.0350
      5 C          61.3349   87.3820   10.8631 C.2     1  UNL1        0.1040
      6 N          60.4168   87.7177    9.7253 N.2     1  UNL1       -0.1483
      7 N          60.7883   89.0789    9.2161 N.2     1  UNL1       -0.1520
      8 C          61.9358   89.5844   10.0391 C.2     1  UNL1        0.0860
      9 C          62.7169   90.8642    9.9933 C.3     1  UNL1        0.0697
     10 O          66.5416   95.6365   10.6030 O.2     1  UNL1       -0.2744
     11 C          66.2916   94.6523   11.7070 C.2     1  UNL1        0.2293
     12 N          66.8128   94.7500   13.1101 N.am    1  UNL1       -0.2839
     13 C          66.3198   93.5557   13.8720 C.ar    1  UNL1        0.0467
     14 C          66.5163   93.1213   15.2943 C.ar    1  UNL1        0.0144
     15 C          65.8868   91.8510   15.7842 C.ar    1  UNL1        0.0013
     16 C          65.0610   91.0151   14.8519 C.ar    1  UNL1       -0.0002
     17 C          64.8645   91.4494   13.4297 C.ar    1  UNL1       -0.0026
     18 C          65.4940   92.7197   12.9398 C.ar    1  UNL1       -0.0008
     19 C          65.4765   93.3975   11.6017 C.3     1  UNL1        0.0927
     20 C          65.1097   93.5695   10.1575 C.3     1  UNL1        0.0179
     21 C          64.6168   92.3752   10.9193 C.3     1  UNL1        0.0315
     22 H          67.3790   95.4715   13.4682 H       1  UNL1        0.1549
     23 C          61.3173   86.1151   11.6660 C.2     1  UNL1        0.0209
     24 C          62.5774   85.3205   11.8411 C.2     1  UNL1        0.0017
     25 C          62.5598   84.0536   12.6440 C.ar    1  UNL1        0.0031
     26 C          62.5111   84.1155   14.1419 C.ar    1  UNL1        0.0207
     27 C          62.4935   82.8486   14.9447 C.ar    1  UNL1        0.0989
     28 N          62.5245   81.5197   14.2497 N.ar    1  UNL1       -0.2423
     29 C          62.5731   81.4577   12.7517 C.ar    1  UNL1        0.0989
     30 C          62.5908   82.7247   11.9488 C.ar    1  UNL1        0.0207
@<TRIPOS>BOND
     1    10    11    2
     2    11    12   am
     3    12    13    1
     4    13    14   ar
     5    14    15   ar
     6    15    16   ar
     7    16    17   ar
     8    17    18   ar
     9    18    19    1
    10    19    20    1
    11    20    21    1
    12    21     1    1
    13     1     2    2
    14     2     3    1
    15     3     4    2
    16     4     5    1
    17     5    23    1
    18    23    24    2
    19    24    25    1
    20    25    26   ar
    21    26    27   ar
    22    27    28   ar
    23    28    29   ar
    24    29    30   ar
    25     5     6    2
    26     6     7    1
    27     7     8    2
    28     8     9    1
    29    19    11    1
    30     9     1    1
    31    18    13   ar
    32    21    19    1
    33     8     4    1
    34    30    25   ar
    35    12    22    1
@<TRIPOS>MOLECULE
*****
 30 35 0 0 0
SMALL
GASTEIGER

@<TRIPOS>ATOM
      1 C          62.1566   92.8380    1.0403 C.2     1  UNL1       -0.0378
      2 C          62.9241   91.9201    1.9451 C.2     1  UNL1       -0.0080
      3 C          62.2895   91.4025    3.2018 C.2     1  UNL1        0.0022
      4 C          60.8873   91.8029    3.5538 C.2     1  UNL1        0.0350
      5 C          60.0062   91.4549    4.7167 C.2     1  UNL1        0.1040
      6 N          58.6940   92.1577    4.5307 N.2     1  UNL1       -0.1483
      7 N          58.7645   92.9401    3.2528 N.2     1  UNL1       -0.1520
      8 C          60.1199   92.7208    2.6491 C.2     1  UNL1        0.0860
      9 C          60.7546   93.2383    1.3923 C.3     1  UNL1        0.0697
     10 O          64.2844   94.5303   -3.5076 O.2     1  UNL1       -0.2744
     11 C          64.4626   94.9039   -2.0658 C.2     1  UNL1        0.2293
     12 N          65.3880   95.9589   -1.5362 N.am    1  UNL1       -0.2839
     13 C          65.2440   95.9951   -0.0436 C.ar    1  UNL1        0.0467
     14 C          65.9055   96.8349    1.0085 C.ar    1  UNL1        0.0144
     15 C          65.5526   96.6421    2.4535 C.ar    1  UNL1        0.0013
     16 C          64.5381   95.6094    2.8465 C.ar    1  UNL1       -0.0002
     17 C          63.8766   94.7695    1.7944 C.ar    1  UNL1       -0.0026
     18 C          64.2295   94.9624    0.3493 C.ar    1  UNL1       -0.0008
     19 C          63.7466   94.2880   -0.9005 C.3     1  UNL1        0.0927
     20 C          62.9354   93.3194   -1.7090 C.3     1  UNL1        0.0179
     21 C          62.7914   93.3555   -0.2164 C.3     1  UNL1        0.0315
     22 H          65.9851   96.5277   -2.0739 H       1  UNL1        0.1549
     23 C          60.3726   90.5611    5.8642 C.2     1  UNL1        0.0209
     24 C          59.3558   89.6169    6.4338 C.2     1  UNL1        0.0017
     25 C          59.7223   88.7230    7.5813 C.ar    1  UNL1        0.0031
     26 C          60.2077   89.3177    8.8700 C.ar    1  UNL1        0.0207
     27 C          60.5742   88.4239   10.0175 C.ar    1  UNL1        0.0989
     28 N          60.4552   86.9353    9.8763 N.ar    1  UNL1       -0.2423
     29 C          59.9698   86.3405    8.5876 C.ar    1  UNL1        0.0989
     30 C          59.6033   87.2344    7.4401 C.ar    1  UNL1        0.0207
@<TRIPOS>BOND
     1    10    11    2
     2    11    12   am
     3    12    13    1
     4    13    14   ar
     5    14    15   ar
     6    15    16   ar
     7    16    17   ar
     8    17    18   ar
     9    18    19    1
    10    19    20    1
    11    20    21    1
    12    21     1    1
    13     1     2    2
    14     2     3    1
    15     3     4    2
    16     4     5    1
    17     5    23    1
    18    23    24    2
    19    24    25    1
    20    25    26   ar
    21    26    27   ar
    22    27    28   ar
    23    28    29   ar
    24    29    30   ar
    25     5     6    2
    26     6     7    1
    27     7     8    2
    28     8     9    1
    29    19    11    1
    30     9     1    1
    31    18    13   ar
    32    21    19    1
    33     8     4    1
    34    30    25   ar
    35    12    22    1
@<TRIPOS>MOLECULE
*****
 30 35 0 0 0
SMALL
GASTEIGER

@<TRIPOS>ATOM
      1 C          62.3596   86.0036   12.6648 C.2     1  UNL1       -0.0378
      2 C          63.3871   87.0154   13.0780 C.2     1  UNL1       -0.0080
      3 C          63.4565   88.3416   12.3805 C.2     1  UNL1        0.0022
      4 C          62.4984   88.6559   11.2700 C.2     1  UNL1        0.0350
      5 C          62.3280   89.8694   10.4049 C.2     1  UNL1        0.1040
      6 N          61.1951   89.6076    9.4571 N.2     1  UNL1       -0.1483
      7 N          60.6656   88.2323    9.7365 N.2     1  UNL1       -0.1520
      8 C          61.4710   87.6442   10.8568 C.2     1  UNL1        0.0860
      9 C          61.4016   86.3179   11.5543 C.3     1  UNL1        0.0697
     10 O          62.0385   81.4158   15.2962 O.2     1  UNL1       -0.2744
     11 C          62.4943   81.8038   13.9208 C.2     1  UNL1        0.2293
     12 N          63.0188   80.8709   12.8699 N.am    1  UNL1       -0.2839
     13 C          63.3543   81.6834   11.6544 C.ar    1  UNL1        0.0467
     14 C          63.9076   81.3019   10.3134 C.ar    1  UNL1        0.0144
     15 C          64.1437   82.3555    9.2723 C.ar    1  UNL1        0.0013
     16 C          63.8267   83.7906    9.5721 C.ar    1  UNL1       -0.0002
     17 C          63.2734   84.1721   10.9131 C.ar    1  UNL1       -0.0026
     18 C          63.0372   83.1185   11.9542 C.ar    1  UNL1       -0.0008
     19 C          62.5057   83.1929   13.3549 C.3     1  UNL1        0.0927
     20 C          61.9548   83.8649   14.5776 C.3     1  UNL1        0.0179
     21 C          62.2903   84.6773   13.3623 C.3     1  UNL1        0.0315
     22 H          63.1242   79.8964   12.9617 H       1  UNL1        0.1549
     23 C          63.1465   91.1244   10.4752 C.2     1  UNL1        0.0209
     24 C          64.2195   91.2628   11.5143 C.2     1  UNL1        0.0017
     25 C          65.0381   92.5178   11.5846 C.ar    1  UNL1        0.0031
     26 C          65.2043   93.3741   10.3644 C.ar    1  UNL1        0.0207
     27 C          66.0229   94.6291   10.4347 C.ar    1  UNL1        0.0989
     28 N          66.6752   95.0278   11.7253 N.ar    1  UNL1       -0.2423
     29 C          66.5090   94.1714   12.9456 C.ar    1  UNL1        0.0989
     30 C          65.6904   92.9164   12.8753 C.ar    1  UNL1        0.0207
@<TRIPOS>BOND
     1    10    11    2
     2    11    12   am
     3    12    13    1
     4    13    14   ar
     5    14    15   ar
     6    15    16   ar
     7    16    17   ar
     8    17    18   ar
     9    18    19    1
    10    19    20    1
    11    20    21    1
    12    21     1    1
    13     1     2    2
    14     2     3    1
    15     3     4    2
    16     4     5    1
    17     5    23    1
    18    23    24    2
    19    24    25    1
    20    25    26   ar
    21    26    27   ar
    22    27    28   ar
    23    28    29   ar
    24    29    30   ar
    25     5     6    2
    26     6     7    1
    27     7     8    2
    28     8     9    1
    29    19    11    1
    30     9     1    1
    31    18    13   ar
    32    21    19    1
    33     8     4    1
    34    30    25   ar
    35    12    22    1
