@<TRIPOS>MOLECULE
*****
 32 35 0 0 0
SMALL
GASTEIGER

@<TRIPOS>ATOM
      1 N          55.5121   95.5570   -2.0427 N.am    1  UNL1       -0.2684
      2 C          56.3108   94.3219   -2.3374 C.2     1  UNL1        0.3078
      3 O          55.7993   93.3163   -3.3259 O.2     1  UNL1       -0.2522
      4 N          57.6207   94.0925   -1.6437 N.am    1  UNL1       -0.2605
      5 C          58.4193   92.8574   -1.9385 C.3     1  UNL1        0.1164
      6 C          59.7293   92.6280   -1.2448 C.3     1  UNL1        0.1137
      7 N          60.2407   93.6337   -0.2562 N.pl3   1  UNL1       -0.2913
      8 C          59.4422   94.8687    0.0386 C.3     1  UNL1        0.0941
      9 C          59.9536   95.8743    1.0271 C.3     1  UNL1        0.0233
     10 C          58.1321   95.0981   -0.6552 C.3     1  UNL1        0.1147
     11 H          55.8478   96.2171   -1.3939 H       1  UNL1        0.1564
     12 C          61.5507   93.4042    0.4375 C.ar    1  UNL1        0.1381
     13 N          61.6410   92.4152    1.5616 N.ar    1  UNL1       -0.1989
     14 C          62.9509   92.1857    2.2553 C.ar    1  UNL1        0.2153
     15 N          63.0412   91.1965    3.3794 N.pl3   1  UNL1       -0.3274
     16 N          64.1707   92.9453    1.8250 N.ar    1  UNL1       -0.2058
     17 C          64.0805   93.9344    0.7009 C.ar    1  UNL1        0.1352
     18 S          65.1055   94.8237    0.0618 S.2     1  UNL1        0.0326
     19 N          64.4290   95.6027   -1.0269 N.ar    1  UNL1       -0.2060
     20 C          62.9859   95.1950   -1.0607 C.ar    1  UNL1        0.1122
     21 C          62.7705   94.1639    0.0072 C.ar    1  UNL1        0.0767
     22 H          62.2406   90.6980    3.6619 H       1  UNL1        0.1452
     23 H          63.9009   91.0459    3.8348 H       1  UNL1        0.1452
     24 C          51.5822   96.2453   -4.1239 C.ar    1  UNL1        0.1385
     25 C          51.6045   95.7942   -2.6935 C.ar    1  UNL1        0.0382
     26 C          52.9144   95.5647   -1.9997 C.ar    1  UNL1        0.0175
     27 C          54.2022   95.7865   -2.7364 C.ar    1  UNL1        0.0478
     28 C          54.1799   96.2376   -4.1668 C.ar    1  UNL1       -0.0053
     29 C          55.4676   96.4594   -4.9034 C.3     1  UNL1        0.0324
     30 C          52.8699   96.4671   -4.8605 C.ar    1  UNL1        0.0339
     31 C          50.0888   96.0328   -6.2392 C.3     1  UNL1        0.2525
     32 O          50.2722   96.4748   -4.8176 O.3     1  UNL1       -0.4714
@<TRIPOS>BOND
     1    31    32    1
     2    32    24    1
     3    24    25   ar
     4    25    26   ar
     5    26    27   ar
     6    27     1    1
     7     1     2   am
     8     2     3    2
     9     2     4   am
    10     4     5    1
    11     5     6    1
    12     6     7    1
    13     7    12    1
    14    12    13   ar
    15    13    14   ar
    16    14    15    1
    17    14    16   ar
    18    16    17   ar
    19    17    18   ar
    20    18    19   ar
    21    19    20   ar
    22    20    21   ar
    23     7     8    1
    24     8     9    1
    25     8    10    1
    26    27    28   ar
    27    28    29    1
    28    28    30   ar
    29    30    24   ar
    30    10     4    1
    31    21    12   ar
    32    21    17   ar
    33     1    11    1
    34    15    22    1
    35    15    23    1
@<TRIPOS>MOLECULE
*****
 32 35 0 0 0
SMALL
GASTEIGER

@<TRIPOS>ATOM
      1 N          55.5287   96.0414   -3.4646 N.am    1  UNL1       -0.2684
      2 C          56.3682   94.8110   -3.6421 C.2     1  UNL1        0.3078
      3 O          55.8816   93.6902   -4.5122 O.2     1  UNL1       -0.2522
      4 N          57.6941   94.7014   -2.9496 N.am    1  UNL1       -0.2605
      5 C          58.5336   93.4710   -3.1271 C.3     1  UNL1        0.1164
      6 C          59.8596   93.3614   -2.4346 C.3     1  UNL1        0.1137
      7 N          60.3462   94.4823   -1.5644 N.pl3   1  UNL1       -0.2913
      8 C          59.5068   95.7126   -1.3869 C.3     1  UNL1        0.0941
      9 C          59.9934   96.8334   -0.5168 C.3     1  UNL1        0.0233
     10 C          58.1807   95.8222   -2.0795 C.3     1  UNL1        0.1147
     11 H          55.8480   96.7770   -2.8936 H       1  UNL1        0.1564
     12 C          61.6722   94.3727   -0.8719 C.ar    1  UNL1        0.1381
     13 N          62.8940   94.9854   -1.4898 N.ar    1  UNL1       -0.1989
     14 C          64.2200   94.8758   -0.7973 C.ar    1  UNL1        0.2153
     15 N          65.4418   95.4886   -1.4152 N.pl3   1  UNL1       -0.3274
     16 N          64.3243   94.1534    0.5133 N.ar    1  UNL1       -0.2058
     17 C          63.1025   93.5407    1.1311 C.ar    1  UNL1        0.1352
     18 S          62.8988   92.7737    2.4040 S.2     1  UNL1        0.0326
     19 N          61.4467   92.4093    2.4981 N.ar    1  UNL1       -0.2060
     20 C          60.7531   92.9510    1.2834 C.ar    1  UNL1        0.1122
     21 C          61.7765   93.6503    0.4386 C.ar    1  UNL1        0.0767
     22 H          65.3733   95.9628   -2.2753 H       1  UNL1        0.1452
     23 H          66.3121   95.4167   -0.9607 H       1  UNL1        0.1452
     24 C          51.5506   96.3702   -5.5423 C.ar    1  UNL1        0.1385
     25 C          52.8206   96.4535   -6.3362 C.ar    1  UNL1        0.0382
     26 C          54.1466   96.3439   -5.6437 C.ar    1  UNL1        0.0175
     27 C          54.2027   96.1510   -4.1572 C.ar    1  UNL1        0.0478
     28 C          52.9327   96.0677   -3.3632 C.ar    1  UNL1       -0.0053
     29 C          52.9888   95.8748   -1.8767 C.3     1  UNL1        0.0324
     30 C          51.6067   96.1773   -4.0558 C.ar    1  UNL1        0.0339
     31 C          48.9588   96.2016   -5.4798 C.3     1  UNL1        0.2525
     32 O          50.2246   96.4798   -6.2349 O.3     1  UNL1       -0.4714
@<TRIPOS>BOND
     1    31    32    1
     2    32    24    1
     3    24    25   ar
     4    25    26   ar
     5    26    27   ar
     6    27     1    1
     7     1     2   am
     8     2     3    2
     9     2     4   am
    10     4     5    1
    11     5     6    1
    12     6     7    1
    13     7    12    1
    14    12    13   ar
    15    13    14   ar
    16    14    15    1
    17    14    16   ar
    18    16    17   ar
    19    17    18   ar
    20    18    19   ar
    21    19    20   ar
    22    20    21   ar
    23     7     8    1
    24     8     9    1
    25     8    10    1
    26    27    28   ar
    27    28    29    1
    28    28    30   ar
    29    30    24   ar
    30    10     4    1
    31    21    12   ar
    32    21    17   ar
    33     1    11    1
    34    15    22    1
    35    15    23    1
