@<TRIPOS>MOLECULE
*****
 23 25 0 0 0
SMALL
GASTEIGER

@<TRIPOS>ATOM
      1 C          61.8222   86.2261    8.7060 C.ar    1  UNL1       -0.0031
      2 C          60.6514   85.8112    7.8650 C.ar    1  UNL1       -0.0027
      3 C          59.4841   86.7377    7.6952 C.ar    1  UNL1        0.0029
      4 C          59.4875   88.0792    8.3664 C.ar    1  UNL1        0.0375
      5 C          60.6582   88.4942    9.2073 C.ar    1  UNL1        0.1450
      6 C          61.8256   87.5676    9.3771 C.ar    1  UNL1        0.0346
      7 C          62.9895   85.2996    8.8758 C.3     1  UNL1        0.0992
      8 C          63.5095   83.0163   12.7185 C.3     1  UNL1        0.0393
      9 C          64.1676   82.5292   11.4617 C.3     1  UNL1        0.0229
     10 C          63.9943   83.2903   10.1808 C.3     1  UNL1        0.0728
     11 N          63.1629   84.5385   10.1567 N.3     1  UNL1       -0.2689
     12 C          62.5047   85.0256   11.4135 C.3     1  UNL1        0.0728
     13 C          62.6781   84.2645   12.6944 C.3     1  UNL1        0.0229
     14 O          63.9313   82.9922   15.2820 O.co2   1  UNL1       -0.5492
     15 C          63.6828   82.2552   13.9994 C.2     1  UNL1        0.0501
     16 O          63.6077   80.7571   13.9977 O.co2   1  UNL1       -0.5492
     17 O          60.6616   89.8356    9.8784 O.3     1  UNL1       -0.4535
     18 C          61.8436   90.2612   10.6980 C.ar    1  UNL1        0.1453
     19 C          61.9647   89.8183   12.1261 C.ar    1  UNL1        0.0375
     20 C          63.1466   90.2439   12.9457 C.ar    1  UNL1        0.0031
     21 C          64.2076   91.1124   12.3373 C.ar    1  UNL1        0.0002
     22 C          64.0865   91.5553   10.9093 C.ar    1  UNL1        0.0031
     23 C          62.9045   91.1297   10.0896 C.ar    1  UNL1        0.0375
@<TRIPOS>UNITY_ATOM_ATTR
14 1
charge -1
@<TRIPOS>BOND
     1    14    15   ar
     2    15    16   ar
     3    15     8    1
     4     8     9    1
     5     9    10    1
     6    10    11    1
     7    11     7    1
     8     7     1    1
     9     1     2   ar
    10     2     3   ar
    11     3     4   ar
    12     4     5   ar
    13     5    17    1
    14    17    18    1
    15    18    19   ar
    16    19    20   ar
    17    20    21   ar
    18    21    22   ar
    19    22    23   ar
    20     5     6   ar
    21    11    12    1
    22    12    13    1
    23    13     8    1
    24     6     1   ar
    25    23    18   ar
@<TRIPOS>MOLECULE
*****
 23 25 0 0 0
SMALL
GASTEIGER

@<TRIPOS>ATOM
      1 C          63.1778   84.2018   14.5324 C.ar    1  UNL1       -0.0031
      2 C          62.6990   82.7851   14.6508 C.ar    1  UNL1       -0.0027
      3 C          62.3421   82.0085   13.4182 C.ar    1  UNL1        0.0029
      4 C          62.4641   82.6485   12.0670 C.ar    1  UNL1        0.0375
      5 C          62.9429   84.0650   11.9485 C.ar    1  UNL1        0.1450
      6 C          63.2998   84.8417   13.1812 C.ar    1  UNL1        0.0346
      7 C          63.5347   84.9784   15.7650 C.3     1  UNL1        0.0992
      8 C          63.7900   89.4681   15.6005 C.3     1  UNL1        0.0393
      9 C          64.4034   88.6415   14.5094 C.3     1  UNL1        0.0229
     10 C          64.3183   87.1449   14.5643 C.3     1  UNL1        0.0728
     11 N          63.6198   86.4749   15.7102 N.3     1  UNL1       -0.2689
     12 C          63.0064   87.3015   16.8012 C.3     1  UNL1        0.0728
     13 C          63.0915   88.7981   16.7464 C.3     1  UNL1        0.0229
     14 O          63.4359   91.7845   16.7225 O.co2   1  UNL1       -0.5492
     15 C          63.8751   90.9647   15.5456 C.2     1  UNL1        0.0501
     16 O          64.3994   91.6414   14.3140 O.co2   1  UNL1       -0.5492
     17 O          63.0649   84.7049   10.5974 O.3     1  UNL1       -0.4535
     18 C          62.0192   85.6728   10.1287 C.ar    1  UNL1        0.1453
     19 C          61.6131   85.6972    8.6849 C.ar    1  UNL1        0.0375
     20 C          60.5673   86.6651    8.2162 C.ar    1  UNL1        0.0031
     21 C          59.9276   87.6084    9.1913 C.ar    1  UNL1        0.0002
     22 C          60.3337   87.5840   10.6351 C.ar    1  UNL1        0.0031
     23 C          61.3795   86.6161   11.1038 C.ar    1  UNL1        0.0375
@<TRIPOS>UNITY_ATOM_ATTR
14 1
charge -1
@<TRIPOS>BOND
     1    14    15   ar
     2    15    16   ar
     3    15     8    1
     4     8     9    1
     5     9    10    1
     6    10    11    1
     7    11     7    1
     8     7     1    1
     9     1     2   ar
    10     2     3   ar
    11     3     4   ar
    12     4     5   ar
    13     5    17    1
    14    17    18    1
    15    18    19   ar
    16    19    20   ar
    17    20    21   ar
    18    21    22   ar
    19    22    23   ar
    20     5     6   ar
    21    11    12    1
    22    12    13    1
    23    13     8    1
    24     6     1   ar
    25    23    18   ar
@<TRIPOS>MOLECULE
*****
 23 25 0 0 0
SMALL
GASTEIGER

@<TRIPOS>ATOM
      1 C          62.1173   90.1310   10.4897 C.ar    1  UNL1       -0.0031
      2 C          60.8662   90.4010   11.2719 C.ar    1  UNL1       -0.0027
      3 C          59.8623   89.3066   11.4822 C.ar    1  UNL1        0.0029
      4 C          60.1094   87.9421   10.9103 C.ar    1  UNL1        0.0375
      5 C          61.3604   87.6720   10.1281 C.ar    1  UNL1        0.1450
      6 C          62.3644   88.7665    9.9177 C.ar    1  UNL1        0.0346
      7 C          63.1213   91.2254   10.2793 C.3     1  UNL1        0.0992
      8 C          66.1455   92.1503   13.4807 C.3     1  UNL1        0.0393
      9 C          66.2807   92.7677   12.1204 C.3     1  UNL1        0.0229
     10 C          65.2726   92.4594   11.0533 C.3     1  UNL1        0.0728
     11 N          64.1293   91.5337   11.3465 N.3     1  UNL1       -0.2689
     12 C          63.9941   90.9163   12.7068 C.3     1  UNL1        0.0728
     13 C          65.0022   91.2246   13.7739 C.3     1  UNL1        0.0229
     14 O          68.6130   92.5172   14.2065 O.co2   1  UNL1       -0.5492
     15 C          67.1535   92.4586   14.5478 C.2     1  UNL1        0.0501
     16 O          66.7022   92.7082   15.9563 O.co2   1  UNL1       -0.5492
     17 O          61.6075   86.3075    9.5562 O.3     1  UNL1       -0.4535
     18 C          62.4484   85.3197   10.3091 C.ar    1  UNL1        0.1453
     19 C          63.3179   84.3519    9.5625 C.ar    1  UNL1        0.0375
     20 C          64.1589   83.3641   10.3155 C.ar    1  UNL1        0.0031
     21 C          64.1304   83.3441   11.8151 C.ar    1  UNL1        0.0002
     22 C          63.2610   84.3118   12.5617 C.ar    1  UNL1        0.0031
     23 C          62.4200   85.2997   11.8087 C.ar    1  UNL1        0.0375
@<TRIPOS>UNITY_ATOM_ATTR
14 1
charge -1
@<TRIPOS>BOND
     1    14    15   ar
     2    15    16   ar
     3    15     8    1
     4     8     9    1
     5     9    10    1
     6    10    11    1
     7    11     7    1
     8     7     1    1
     9     1     2   ar
    10     2     3   ar
    11     3     4   ar
    12     4     5   ar
    13     5    17    1
    14    17    18    1
    15    18    19   ar
    16    19    20   ar
    17    20    21   ar
    18    21    22   ar
    19    22    23   ar
    20     5     6   ar
    21    11    12    1
    22    12    13    1
    23    13     8    1
    24     6     1   ar
    25    23    18   ar
@<TRIPOS>MOLECULE
*****
 23 25 0 0 0
SMALL
GASTEIGER

@<TRIPOS>ATOM
      1 C          60.6277   88.3449    9.1399 C.ar    1  UNL1       -0.0031
      2 C          59.4851   87.8657    8.2944 C.ar    1  UNL1       -0.0027
      3 C          59.5514   86.5189    7.6374 C.ar    1  UNL1        0.0029
      4 C          60.7604   85.6513    7.8259 C.ar    1  UNL1        0.0375
      5 C          61.9030   86.1304    8.6713 C.ar    1  UNL1        0.1450
      6 C          61.8367   87.4772    9.3284 C.ar    1  UNL1        0.0346
      7 C          60.5613   89.6917    9.7969 C.3     1  UNL1        0.0992
      8 C          63.9164   91.0616   12.4646 C.3     1  UNL1        0.0393
      9 C          63.8940   91.4655   11.0202 C.3     1  UNL1        0.0229
     10 C          62.7757   91.0089   10.1310 C.3     1  UNL1        0.0728
     11 N          61.6797   90.1484   10.6861 N.3     1  UNL1       -0.2689
     12 C          61.7021   89.7445   12.1305 C.3     1  UNL1        0.0728
     13 C          62.8204   90.2011   13.0198 C.3     1  UNL1        0.0229
     14 O          65.5912   92.9036   13.2079 O.co2   1  UNL1       -0.5492
     15 C          65.0348   91.5183   13.3538 C.2     1  UNL1        0.0501
     16 O          65.5968   90.5896   14.3891 O.co2   1  UNL1       -0.5492
     17 O          63.1120   85.2627    8.8598 O.3     1  UNL1       -0.4535
     18 C          63.2630   84.4482   10.1103 C.ar    1  UNL1        0.1453
     19 C          62.5516   84.8610   11.3648 C.ar    1  UNL1        0.0375
     20 C          62.7026   84.0466   12.6153 C.ar    1  UNL1        0.0031
     21 C          63.5650   82.8193   12.6114 C.ar    1  UNL1        0.0002
     22 C          64.2764   82.4064   11.3571 C.ar    1  UNL1        0.0031
     23 C          64.1254   83.2209   10.1065 C.ar    1  UNL1        0.0375
@<TRIPOS>UNITY_ATOM_ATTR
14 1
charge -1
@<TRIPOS>BOND
     1    14    15   ar
     2    15    16   ar
     3    15     8    1
     4     8     9    1
     5     9    10    1
     6    10    11    1
     7    11     7    1
     8     7     1    1
     9     1     2   ar
    10     2     3   ar
    11     3     4   ar
    12     4     5   ar
    13     5    17    1
    14    17    18    1
    15    18    19   ar
    16    19    20   ar
    17    20    21   ar
    18    21    22   ar
    19    22    23   ar
    20     5     6   ar
    21    11    12    1
    22    12    13    1
    23    13     8    1
    24     6     1   ar
    25    23    18   ar
@<TRIPOS>MOLECULE
*****
 23 25 0 0 0
SMALL
GASTEIGER

@<TRIPOS>ATOM
      1 C          63.5332   88.7381   16.0378 C.ar    1  UNL1       -0.0031
      2 C          62.8729   88.1422   17.2457 C.ar    1  UNL1       -0.0027
      3 C          62.8844   86.6563   17.4503 C.ar    1  UNL1        0.0029
      4 C          63.5561   85.7663   16.4471 C.ar    1  UNL1        0.0375
      5 C          64.2164   86.3621   15.2392 C.ar    1  UNL1        0.1450
      6 C          64.2049   87.8481   15.0346 C.ar    1  UNL1        0.0346
      7 C          63.5217   90.2240   15.8332 C.3     1  UNL1        0.0992
      8 C          65.8002   92.0408   12.4043 C.3     1  UNL1        0.0393
      9 C          66.4298   91.9584   13.7632 C.3     1  UNL1        0.0229
     10 C          65.6703   91.3528   14.9062 C.3     1  UNL1        0.0728
     11 N          64.2812   90.8296   14.6902 N.3     1  UNL1       -0.2689
     12 C          63.6516   90.9120   13.3313 C.3     1  UNL1        0.0728
     13 C          64.4111   91.5176   12.1883 C.3     1  UNL1        0.0229
     14 O          68.0126   92.3251   11.0722 O.co2   1  UNL1       -0.5492
     15 C          66.5597   92.6464   11.2613 C.2     1  UNL1        0.0501
     16 O          65.8663   93.5733   10.3074 O.co2   1  UNL1       -0.5492
     17 O          64.8881   85.4720   14.2359 O.3     1  UNL1       -0.4535
     18 C          64.1088   84.3847   13.5574 C.ar    1  UNL1        0.1453
     19 C          64.0893   83.0017   14.1380 C.ar    1  UNL1        0.0375
     20 C          63.3100   81.9144   13.4594 C.ar    1  UNL1        0.0031
     21 C          62.5501   82.2101   12.2004 C.ar    1  UNL1        0.0002
     22 C          62.5696   83.5930   11.6199 C.ar    1  UNL1        0.0031
     23 C          63.3489   84.6804   12.2984 C.ar    1  UNL1        0.0375
@<TRIPOS>UNITY_ATOM_ATTR
14 1
charge -1
@<TRIPOS>BOND
     1    14    15   ar
     2    15    16   ar
     3    15     8    1
     4     8     9    1
     5     9    10    1
     6    10    11    1
     7    11     7    1
     8     7     1    1
     9     1     2   ar
    10     2     3   ar
    11     3     4   ar
    12     4     5   ar
    13     5    17    1
    14    17    18    1
    15    18    19   ar
    16    19    20   ar
    17    20    21   ar
    18    21    22   ar
    19    22    23   ar
    20     5     6   ar
    21    11    12    1
    22    12    13    1
    23    13     8    1
    24     6     1   ar
    25    23    18   ar
@<TRIPOS>MOLECULE
*****
 23 25 0 0 0
SMALL
GASTEIGER

@<TRIPOS>ATOM
      1 C          62.1917   86.6445   10.3398 C.ar    1  UNL1       -0.0031
      2 C          62.1198   86.4876    8.8497 C.ar    1  UNL1       -0.0027
      3 C          62.7081   85.2735    8.1941 C.ar    1  UNL1        0.0029
      4 C          63.3684   84.2163    9.0286 C.ar    1  UNL1        0.0375
      5 C          63.4403   84.3732   10.5186 C.ar    1  UNL1        0.1450
      6 C          62.8520   85.5873   11.1742 C.ar    1  UNL1        0.0346
      7 C          61.6034   87.8586   10.9953 C.3     1  UNL1        0.0992
      8 C          64.2238   91.3876   11.9596 C.3     1  UNL1        0.0393
      9 C          64.0399   90.2923   12.9678 C.3     1  UNL1        0.0229
     10 C          63.1664   89.1160   12.6464 C.3     1  UNL1        0.0728
     11 N          62.4768   89.0349   11.3168 N.3     1  UNL1       -0.2689
     12 C          62.6607   90.1302   10.3086 C.3     1  UNL1        0.0728
     13 C          63.5342   91.3066   10.6300 C.3     1  UNL1        0.0229
     14 O          65.4848   93.5281   11.1994 O.co2   1  UNL1       -0.5492
     15 C          65.0972   92.5639   12.2811 C.2     1  UNL1        0.0501
     16 O          65.5832   92.7760   13.6842 O.co2   1  UNL1       -0.5492
     17 O          64.1006   83.3159   11.3530 O.3     1  UNL1       -0.4535
     18 C          63.2881   82.5091   12.3219 C.ar    1  UNL1        0.1453
     19 C          62.7502   83.1510   13.5664 C.ar    1  UNL1        0.0375
     20 C          61.9377   82.3442   14.5354 C.ar    1  UNL1        0.0031
     21 C          61.6631   80.8956   14.2599 C.ar    1  UNL1        0.0002
     22 C          62.2009   80.2537   13.0155 C.ar    1  UNL1        0.0031
     23 C          63.0135   81.0605   12.0464 C.ar    1  UNL1        0.0375
@<TRIPOS>UNITY_ATOM_ATTR
14 1
charge -1
@<TRIPOS>BOND
     1    14    15   ar
     2    15    16   ar
     3    15     8    1
     4     8     9    1
     5     9    10    1
     6    10    11    1
     7    11     7    1
     8     7     1    1
     9     1     2   ar
    10     2     3   ar
    11     3     4   ar
    12     4     5   ar
    13     5    17    1
    14    17    18    1
    15    18    19   ar
    16    19    20   ar
    17    20    21   ar
    18    21    22   ar
    19    22    23   ar
    20     5     6   ar
    21    11    12    1
    22    12    13    1
    23    13     8    1
    24     6     1   ar
    25    23    18   ar
@<TRIPOS>MOLECULE
*****
 23 25 0 0 0
SMALL
GASTEIGER

@<TRIPOS>ATOM
      1 C          61.3326   88.2623   10.8403 C.ar    1  UNL1       -0.0031
      2 C          60.4155   88.0045    9.6815 C.ar    1  UNL1       -0.0027
      3 C          60.4493   86.6799    8.9786 C.ar    1  UNL1        0.0029
      4 C          61.4001   85.6130    9.4343 C.ar    1  UNL1        0.0375
      5 C          62.3171   85.8707   10.5929 C.ar    1  UNL1        0.1450
      6 C          62.2834   87.1954   11.2960 C.ar    1  UNL1        0.0346
      7 C          61.2988   89.5869   11.5432 C.3     1  UNL1        0.0992
      8 C          65.0606   92.0262   11.9287 C.3     1  UNL1        0.0393
      9 C          64.5344   91.2674   13.1107 C.3     1  UNL1        0.0229
     10 C          63.2804   90.4543   12.9822 C.3     1  UNL1        0.0728
     11 N          62.5527   90.4000   11.6717 N.3     1  UNL1       -0.2689
     12 C          63.0790   91.1588   10.4897 C.3     1  UNL1        0.0728
     13 C          64.3329   91.9719   10.6182 C.3     1  UNL1        0.0229
     14 O          66.3335   94.0548   12.9359 O.co2   1  UNL1       -0.5492
     15 C          66.3145   92.8393   12.0572 C.2     1  UNL1        0.0501
     16 O          67.5495   92.4368   11.3070 O.co2   1  UNL1       -0.5492
     17 O          63.2680   84.8038   11.0487 O.3     1  UNL1       -0.4535
     18 C          62.8692   83.8630   12.1468 C.ar    1  UNL1        0.1453
     19 C          62.7382   84.3654   13.5541 C.ar    1  UNL1        0.0375
     20 C          62.3395   83.4246   14.6522 C.ar    1  UNL1        0.0031
     21 C          62.0717   81.9815   14.3431 C.ar    1  UNL1        0.0002
     22 C          62.2027   81.4791   12.9359 C.ar    1  UNL1        0.0031
     23 C          62.6015   82.4198   11.8376 C.ar    1  UNL1        0.0375
@<TRIPOS>UNITY_ATOM_ATTR
14 1
charge -1
@<TRIPOS>BOND
     1    14    15   ar
     2    15    16   ar
     3    15     8    1
     4     8     9    1
     5     9    10    1
     6    10    11    1
     7    11     7    1
     8     7     1    1
     9     1     2   ar
    10     2     3   ar
    11     3     4   ar
    12     4     5   ar
    13     5    17    1
    14    17    18    1
    15    18    19   ar
    16    19    20   ar
    17    20    21   ar
    18    21    22   ar
    19    22    23   ar
    20     5     6   ar
    21    11    12    1
    22    12    13    1
    23    13     8    1
    24     6     1   ar
    25    23    18   ar
@<TRIPOS>MOLECULE
*****
 23 25 0 0 0
SMALL
GASTEIGER

@<TRIPOS>ATOM
      1 C          62.5470   89.0422   10.8694 C.ar    1  UNL1       -0.0031
      2 C          62.7600   90.2993   10.0791 C.ar    1  UNL1       -0.0027
      3 C          63.5043   91.4507   10.6876 C.ar    1  UNL1        0.0029
      4 C          64.0356   91.3451   12.0864 C.ar    1  UNL1        0.0375
      5 C          63.8226   90.0881   12.8767 C.ar    1  UNL1        0.1450
      6 C          63.0783   88.9366   12.2682 C.ar    1  UNL1        0.0346
      7 C          61.8027   87.8908   10.2609 C.3     1  UNL1        0.0992
      8 C          63.1830   83.6732   11.0068 C.3     1  UNL1        0.0393
      9 C          62.7102   84.5209   12.1504 C.3     1  UNL1        0.0229
     10 C          62.2501   85.9268   11.9017 C.3     1  UNL1        0.0728
     11 N          62.2628   86.4849   10.5096 N.3     1  UNL1       -0.2689
     12 C          62.7356   85.6372    9.3660 C.3     1  UNL1        0.0728
     13 C          63.1957   84.2313    9.6146 C.3     1  UNL1        0.0229
     14 O          63.3607   81.1959   10.2443 O.co2   1  UNL1       -0.5492
     15 C          63.6431   82.2673   11.2554 C.2     1  UNL1        0.0501
     16 O          64.3855   81.9328   12.5151 O.co2   1  UNL1       -0.5492
     17 O          64.3539   89.9825   14.2755 O.3     1  UNL1       -0.4535
     18 C          64.0165   88.7881   15.1177 C.ar    1  UNL1        0.1453
     19 C          63.2475   88.9632   16.3937 C.ar    1  UNL1        0.0375
     20 C          62.9101   87.7688   17.2360 C.ar    1  UNL1        0.0031
     21 C          63.3416   86.3992   16.8024 C.ar    1  UNL1        0.0002
     22 C          64.1106   86.2241   15.5264 C.ar    1  UNL1        0.0031
     23 C          64.4480   87.4185   14.6841 C.ar    1  UNL1        0.0375
@<TRIPOS>UNITY_ATOM_ATTR
14 1
charge -1
@<TRIPOS>BOND
     1    14    15   ar
     2    15    16   ar
     3    15     8    1
     4     8     9    1
     5     9    10    1
     6    10    11    1
     7    11     7    1
     8     7     1    1
     9     1     2   ar
    10     2     3   ar
    11     3     4   ar
    12     4     5   ar
    13     5    17    1
    14    17    18    1
    15    18    19   ar
    16    19    20   ar
    17    20    21   ar
    18    21    22   ar
    19    22    23   ar
    20     5     6   ar
    21    11    12    1
    22    12    13    1
    23    13     8    1
    24     6     1   ar
    25    23    18   ar
@<TRIPOS>MOLECULE
*****
 23 25 0 0 0
SMALL
GASTEIGER

@<TRIPOS>ATOM
      1 C          63.3658   83.4166   11.9095 C.ar    1  UNL1       -0.0031
      2 C          62.5998   82.1499   12.1522 C.ar    1  UNL1       -0.0027
      3 C          62.4166   81.6405   13.5511 C.ar    1  UNL1        0.0029
      4 C          62.9994   82.3979   14.7073 C.ar    1  UNL1        0.0375
      5 C          63.7654   83.6645   14.4646 C.ar    1  UNL1        0.1450
      6 C          63.9485   84.1739   13.0657 C.ar    1  UNL1        0.0346
      7 C          63.5489   83.9259   10.5105 C.3     1  UNL1        0.0992
      8 C          60.6952   86.9750    8.8345 C.3     1  UNL1        0.0393
      9 C          60.8997   86.8745   10.3170 C.3     1  UNL1        0.0229
     10 C          61.8510   85.8581   10.8757 C.3     1  UNL1        0.0728
     11 N          62.5977   84.9423    9.9519 N.3     1  UNL1       -0.2689
     12 C          62.3932   85.0428    8.4693 C.3     1  UNL1        0.0728
     13 C          61.4420   86.0592    7.9106 C.3     1  UNL1        0.0229
     14 O          59.9945   89.4538    8.4961 O.co2   1  UNL1       -0.5492
     15 C          59.7440   87.9914    8.2758 C.2     1  UNL1        0.0501
     16 O          58.5423   87.5454    7.4968 O.co2   1  UNL1       -0.5492
     17 O          64.3481   84.4218   15.6209 O.3     1  UNL1       -0.4535
     18 C          64.0019   85.8674   15.8216 C.ar    1  UNL1        0.1453
     19 C          63.1741   86.2836   17.0013 C.ar    1  UNL1        0.0375
     20 C          62.8279   87.7292   17.2020 C.ar    1  UNL1        0.0031
     21 C          63.3093   88.7586   16.2230 C.ar    1  UNL1        0.0002
     22 C          64.1371   88.3425   15.0433 C.ar    1  UNL1        0.0031
     23 C          64.4834   86.8968   14.8426 C.ar    1  UNL1        0.0375
@<TRIPOS>UNITY_ATOM_ATTR
14 1
charge -1
@<TRIPOS>BOND
     1    14    15   ar
     2    15    16   ar
     3    15     8    1
     4     8     9    1
     5     9    10    1
     6    10    11    1
     7    11     7    1
     8     7     1    1
     9     1     2   ar
    10     2     3   ar
    11     3     4   ar
    12     4     5   ar
    13     5    17    1
    14    17    18    1
    15    18    19   ar
    16    19    20   ar
    17    20    21   ar
    18    21    22   ar
    19    22    23   ar
    20     5     6   ar
    21    11    12    1
    22    12    13    1
    23    13     8    1
    24     6     1   ar
    25    23    18   ar
