@<TRIPOS>MOLECULE
*****
 68 76 0 0 0
SMALL
GASTEIGER

@<TRIPOS>ATOM
      1 N          58.1861   95.0518   -6.0545 N.3     1  UNL1       -0.1862
      2 C          59.4114   95.0259   -6.9193 C.3     1  UNL1        0.1775
      3 C          60.7565   95.3182   -6.3232 C.2     1  UNL1        0.2452
      4 O          61.9818   95.2923   -7.1881 O.2     1  UNL1       -0.2732
      5 N          60.8763   95.6364   -4.8623 N.am    1  UNL1       -0.2541
      6 C          62.2213   95.9286   -4.2661 C.3     1  UNL1        0.1577
      7 C          62.3411   96.2468   -2.8052 C.2     1  UNL1        0.2445
      8 O          63.6862   96.5391   -2.2091 O.2     1  UNL1       -0.2731
      9 N          61.1158   96.2727   -1.9403 N.am    1  UNL1       -0.2705
     10 C          59.7707   95.9804   -2.5364 C.3     1  UNL1        0.1359
     11 C          59.6510   95.6622   -3.9974 C.3     1  UNL1        0.1908
     12 N          58.3059   95.3699   -4.5935 N.am    1  UNL1       -0.1863
     13 C          57.0806   95.3958   -3.7286 C.2     1  UNL1        0.3191
     14 O          57.2004   95.7140   -2.2677 O.2     1  UNL1       -0.2512
     15 N          55.7355   95.1035   -4.3247 N.am    1  UNL1       -0.2836
     16 H          55.6569   94.8947   -5.2836 H       1  UNL1        0.1513
     17 C          56.8410   94.7595   -6.6506 C.3     1  UNL1        0.1188
     18 C          56.7642   92.2258   -6.0807 C.2     1  UNL1       -0.0034
     19 C          56.4768   93.3539   -7.0268 C.2     1  UNL1       -0.0071
     20 C          63.4466   95.9028   -5.1310 C.3     1  UNL1        0.0556
     21 C          64.0323   94.5911   -5.5628 C.ar    1  UNL1       -0.0198
     22 C          65.0130   94.5446   -6.6968 C.ar    1  UNL1       -0.0011
     23 C          65.5987   93.2330   -7.1286 C.ar    1  UNL1        0.0363
     24 C          65.2036   91.9677   -6.4265 C.ar    1  UNL1        0.1337
     25 O          65.7893   90.6560   -6.8583 O.3     1  UNL1       -0.5055
     26 C          64.2229   92.0141   -5.2924 C.ar    1  UNL1        0.0363
     27 C          63.6372   93.3258   -4.8606 C.ar    1  UNL1       -0.0011
     28 H          66.4019   90.6270   -7.5667 H       1  UNL1        0.2922
     29 C          61.2356   96.5909   -0.4794 C.3     1  UNL1        0.1217
     30 C          61.9516   95.6444    0.4381 C.ar    1  UNL1        0.0135
     31 C          63.4508   95.6342    0.4839 C.ar    1  UNL1       -0.0012
     32 C          64.1668   94.6878    1.4013 C.ar    1  UNL1       -0.0002
     33 C          63.3834   93.7516    2.2730 C.ar    1  UNL1        0.0016
     34 C          61.8842   93.7618    2.2272 C.ar    1  UNL1        0.0214
     35 C          60.8521   92.9608    2.9642 C.ar    1  UNL1        0.0722
     36 C          59.4983   93.4122    2.5023 C.ar    1  UNL1        0.0805
     37 N          59.6937   94.4921    1.4798 N.ar    1  UNL1       -0.3241
     38 C          58.6055   95.2270    0.7546 C.3     1  UNL1        0.1305
     39 C          61.1682   94.7082    1.3098 C.ar    1  UNL1        0.0577
     40 C          61.1258   91.8954    3.9842 C.2     1  UNL1        0.2510
     41 O          62.4097   91.1214    3.9342 O.2     1  UNL1       -0.2698
     42 N          60.1155   91.6041    5.0540 N.am    1  UNL1       -0.2791
     43 H          59.2729   92.1122    5.0868 H       1  UNL1        0.1552
     44 C          60.3892   90.5389    6.0739 C.ar    1  UNL1        0.0701
     45 C          59.7455   89.1905    5.9411 C.ar    1  UNL1        0.0191
     46 C          60.0191   88.1251    6.9610 C.ar    1  UNL1        0.0356
     47 C          60.9363   88.4081    8.1137 C.ar    1  UNL1        0.1318
     48 N          61.5799   89.7565    8.2465 N.ar    1  UNL1       -0.2279
     49 C          61.3063   90.8219    7.2266 C.ar    1  UNL1        0.1149
     50 N          61.2099   87.3429    9.1336 N.pl3   1  UNL1       -0.2932
     51 C          60.9111   87.5963   10.5815 C.3     1  UNL1        0.0935
     52 C          61.1847   86.5311   11.6015 C.3     1  UNL1        0.0375
     53 C          61.7570   85.2123   11.1736 C.3     1  UNL1        0.0609
     54 C          62.0558   84.9587    9.7257 C.3     1  UNL1        0.0375
     55 C          61.7822   86.0240    8.7056 C.3     1  UNL1        0.0935
     56 N          62.0306   84.1470   12.1935 N.3     1  UNL1       -0.2738
     57 C          62.2975   82.7381   11.7532 C.3     1  UNL1        0.0720
     58 C          62.5711   81.6727   12.7732 C.3     1  UNL1        0.0174
     59 C          62.5779   82.0162   14.2333 C.3     1  UNL1        0.0029
     60 C          62.3111   83.4252   14.6735 C.3     1  UNL1        0.0174
     61 C          62.0374   84.4905   13.6536 C.3     1  UNL1        0.0720
     62 C          54.5102   95.1294   -3.4599 C.3     1  UNL1        0.1177
     63 C          53.2302   95.7046   -3.9897 C.ar    1  UNL1       -0.0025
     64 C          52.0420   95.8490   -3.0858 C.ar    1  UNL1       -0.0026
     65 C          50.7620   96.4242   -3.6156 C.ar    1  UNL1       -0.0003
     66 C          50.6702   96.8550   -5.0495 C.ar    1  UNL1       -0.0000
     67 C          51.8585   96.7106   -5.9535 C.ar    1  UNL1       -0.0003
     68 C          53.1385   96.1354   -5.4237 C.ar    1  UNL1       -0.0026
@<TRIPOS>BOND
     1    18    19    2
     2    19    17    1
     3    17     1    1
     4     1     2    1
     5     2     3    1
     6     3     4    2
     7     3     5   am
     8     5     6    1
     9     6    20    1
    10    20    21    1
    11    21    22   ar
    12    22    23   ar
    13    23    24   ar
    14    24    25    1
    15    24    26   ar
    16    26    27   ar
    17     6     7    1
    18     7     8    2
    19     7     9   am
    20     9    29    1
    21    29    30    1
    22    30    31   ar
    23    31    32   ar
    24    32    33   ar
    25    33    34   ar
    26    34    35   ar
    27    35    40    1
    28    40    41    2
    29    40    42   am
    30    42    44    1
    31    44    45   ar
    32    45    46   ar
    33    46    47   ar
    34    47    50    1
    35    50    51    1
    36    51    52    1
    37    52    53    1
    38    53    56    1
    39    56    57    1
    40    57    58    1
    41    58    59    1
    42    59    60    1
    43    60    61    1
    44    53    54    1
    45    54    55    1
    46    47    48   ar
    47    48    49   ar
    48    35    36   ar
    49    36    37   ar
    50    37    38    1
    51    37    39   ar
    52     9    10    1
    53    10    11    1
    54    11    12    1
    55    12    13   am
    56    13    14    2
    57    13    15   am
    58    15    62    1
    59    62    63    1
    60    63    64   ar
    61    64    65   ar
    62    65    66   ar
    63    66    67   ar
    64    67    68   ar
    65    12     1    1
    66    68    63   ar
    67    11     5    1
    68    27    21   ar
    69    39    30   ar
    70    39    34   ar
    71    49    44   ar
    72    55    50    1
    73    61    56    1
    74    25    28    1
    75    42    43    1
    76    15    16    1
@<TRIPOS>MOLECULE
*****
 68 76 0 0 0
SMALL
GASTEIGER

@<TRIPOS>ATOM
      1 N          65.8345   89.9499   14.0445 N.3     1  UNL1       -0.1862
      2 C          66.2645   88.7571   14.8459 C.3     1  UNL1        0.1775
      3 C          65.4509   87.4974   14.8113 C.2     1  UNL1        0.2452
      4 O          65.8810   86.3045   15.6127 O.2     1  UNL1       -0.2732
      5 N          64.2073   87.4305   13.9753 N.am    1  UNL1       -0.2541
      6 C          63.3938   86.1707   13.9406 C.3     1  UNL1        0.1577
      7 C          62.1502   86.1038   13.1046 C.2     1  UNL1        0.2445
      8 O          61.3366   84.8441   13.0700 O.2     1  UNL1       -0.2731
      9 N          61.7201   87.2966   12.3032 N.am    1  UNL1       -0.2705
     10 C          62.5337   88.5564   12.3378 C.3     1  UNL1        0.1359
     11 C          63.7773   88.6232   13.1739 C.3     1  UNL1        0.1908
     12 N          64.5909   89.8830   13.2085 N.am    1  UNL1       -0.1863
     13 C          64.1608   91.0758   12.4071 C.2     1  UNL1        0.3191
     14 O          62.9172   91.0089   11.5711 O.2     1  UNL1       -0.2512
     15 N          64.9743   92.3355   12.4417 N.am    1  UNL1       -0.2836
     16 H          65.7906   92.3795   12.9904 H       1  UNL1        0.1513
     17 C          66.6480   91.2096   14.0791 C.3     1  UNL1        0.1188
     18 C          67.5917   92.9049   15.8070 C.2     1  UNL1       -0.0034
     19 C          67.5177   91.5085   15.2642 C.2     1  UNL1       -0.0071
     20 C          63.8238   84.9779   14.7420 C.3     1  UNL1        0.0556
     21 C          63.4856   83.5952   14.2692 C.ar    1  UNL1       -0.0198
     22 C          62.3421   82.8489   14.8900 C.ar    1  UNL1       -0.0011
     23 C          62.0039   81.4662   14.4171 C.ar    1  UNL1        0.0363
     24 C          62.8093   80.8296   13.3235 C.ar    1  UNL1        0.1337
     25 O          62.4711   79.4469   12.8506 O.3     1  UNL1       -0.5055
     26 C          63.9529   81.5758   12.7026 C.ar    1  UNL1        0.0363
     27 C          64.2911   82.9586   13.1755 C.ar    1  UNL1       -0.0011
     28 H          61.7568   78.9807   13.2384 H       1  UNL1        0.2922
     29 C          60.4765   87.2297   11.4672 C.3     1  UNL1        0.1217
     30 C          60.5756   87.2682    9.9709 C.ar    1  UNL1        0.0135
     31 C          61.0288   86.0527    9.2178 C.ar    1  UNL1       -0.0012
     32 C          61.1279   86.0911    7.7216 C.ar    1  UNL1       -0.0002
     33 C          60.7739   87.3451    6.9785 C.ar    1  UNL1        0.0016
     34 C          60.3208   88.5606    7.7317 C.ar    1  UNL1        0.0214
     35 C          59.9082   89.9285    7.2748 C.ar    1  UNL1        0.0722
     36 C          59.5541   90.7354    8.4887 C.ar    1  UNL1        0.0805
     37 N          59.7478   89.8663    9.6957 N.ar    1  UNL1       -0.3241
     38 C          59.5095   90.2702   11.1205 C.3     1  UNL1        0.1305
     39 C          60.2216   88.5222    9.2279 C.ar    1  UNL1        0.0577
     40 C          59.8585   90.4057    5.8535 C.2     1  UNL1        0.2510
     41 O          58.6665   90.0925    4.9985 O.2     1  UNL1       -0.2698
     42 N          61.0008   91.1960    5.2873 N.am    1  UNL1       -0.2791
     43 H          61.7831   91.4015    5.8485 H       1  UNL1        0.1552
     44 C          60.9511   91.6732    3.8662 C.ar    1  UNL1        0.0701
     45 C          62.1421   91.4923    2.9723 C.ar    1  UNL1        0.0191
     46 C          62.0925   91.9695    1.5511 C.ar    1  UNL1        0.0356
     47 C          60.8520   92.6275    1.0238 C.ar    1  UNL1        0.1318
     48 N          59.6610   92.8083    1.9176 N.ar    1  UNL1       -0.2279
     49 C          59.7106   92.3312    3.3388 C.ar    1  UNL1        0.1149
     50 N          60.8024   93.1047   -0.3974 N.pl3   1  UNL1       -0.2932
     51 C          59.4830   93.4240   -1.0357 C.3     1  UNL1        0.0935
     52 C          59.4333   93.9012   -2.4569 C.3     1  UNL1        0.0375
     53 C          60.7029   94.0591   -3.2399 C.3     1  UNL1        0.0609
     54 C          62.0223   93.7398   -2.6017 C.3     1  UNL1        0.0375
     55 C          62.0720   93.2626   -1.1804 C.3     1  UNL1        0.0935
     56 N          60.6532   94.5363   -4.6610 N.3     1  UNL1       -0.2738
     57 C          61.8957   95.0562   -5.3214 C.3     1  UNL1        0.0720
     58 C          61.8461   95.5334   -6.7427 C.3     1  UNL1        0.0174
     59 C          60.5541   95.4907   -7.5035 C.3     1  UNL1        0.0029
     60 C          59.3117   94.9708   -6.8431 C.3     1  UNL1        0.0174
     61 C          59.3613   94.4935   -5.4219 C.3     1  UNL1        0.0720
     62 C          64.5443   93.5283   11.6403 C.3     1  UNL1        0.1177
     63 C          65.5214   94.2128   10.7310 C.ar    1  UNL1       -0.0025
     64 C          66.6341   93.4296   10.0999 C.ar    1  UNL1       -0.0026
     65 C          67.6112   94.1141    9.1906 C.ar    1  UNL1       -0.0003
     66 C          67.4754   95.5818    8.9123 C.ar    1  UNL1       -0.0000
     67 C          66.3626   96.3650    9.5433 C.ar    1  UNL1       -0.0003
     68 C          65.3856   95.6806   10.4527 C.ar    1  UNL1       -0.0026
@<TRIPOS>BOND
     1    18    19    2
     2    19    17    1
     3    17     1    1
     4     1     2    1
     5     2     3    1
     6     3     4    2
     7     3     5   am
     8     5     6    1
     9     6    20    1
    10    20    21    1
    11    21    22   ar
    12    22    23   ar
    13    23    24   ar
    14    24    25    1
    15    24    26   ar
    16    26    27   ar
    17     6     7    1
    18     7     8    2
    19     7     9   am
    20     9    29    1
    21    29    30    1
    22    30    31   ar
    23    31    32   ar
    24    32    33   ar
    25    33    34   ar
    26    34    35   ar
    27    35    40    1
    28    40    41    2
    29    40    42   am
    30    42    44    1
    31    44    45   ar
    32    45    46   ar
    33    46    47   ar
    34    47    50    1
    35    50    51    1
    36    51    52    1
    37    52    53    1
    38    53    56    1
    39    56    57    1
    40    57    58    1
    41    58    59    1
    42    59    60    1
    43    60    61    1
    44    53    54    1
    45    54    55    1
    46    47    48   ar
    47    48    49   ar
    48    35    36   ar
    49    36    37   ar
    50    37    38    1
    51    37    39   ar
    52     9    10    1
    53    10    11    1
    54    11    12    1
    55    12    13   am
    56    13    14    2
    57    13    15   am
    58    15    62    1
    59    62    63    1
    60    63    64   ar
    61    64    65   ar
    62    65    66   ar
    63    66    67   ar
    64    67    68   ar
    65    12     1    1
    66    68    63   ar
    67    11     5    1
    68    27    21   ar
    69    39    30   ar
    70    39    34   ar
    71    49    44   ar
    72    55    50    1
    73    61    56    1
    74    25    28    1
    75    42    43    1
    76    15    16    1
