@<TRIPOS>MOLECULE
*****
 37 41 0 0 0
SMALL
GASTEIGER

@<TRIPOS>ATOM
      1 O          64.2709   88.4084   13.3321 O.2     1  UNL1       -0.2522
      2 C          64.2588   88.6789   14.8074 C.2     1  UNL1        0.3082
      3 N          64.6562   90.0294   15.3256 N.am    1  UNL1       -0.2681
      4 N          63.8494   87.5991   15.7645 N.am    1  UNL1       -0.2681
      5 H          64.6482   90.2070   16.2939 H       1  UNL1        0.1564
      6 H          63.8414   87.7767   16.7329 H       1  UNL1        0.1564
      7 C          65.0656   91.1092   14.3684 C.ar    1  UNL1        0.0516
      8 C          64.3467   91.2649   13.0611 C.ar    1  UNL1        0.0147
      9 C          64.7561   92.3447   12.1040 C.ar    1  UNL1        0.0010
     10 C          65.8845   93.2691   12.4541 C.ar    1  UNL1       -0.0014
     11 C          66.6034   93.1135   13.7613 C.ar    1  UNL1        0.0010
     12 C          66.1939   92.0335   14.7185 C.ar    1  UNL1        0.0147
     13 C          66.2939   94.3489   11.4968 C.2     1  UNL1        0.0158
     14 C          65.9121   95.7743   11.7663 C.2     1  UNL1        0.0487
     15 C          66.3215   96.8541   10.8091 C.2     1  UNL1        0.2355
     16 N          67.1127   96.5087    9.5824 N.2     1  UNL1       -0.0325
     17 C          67.4945   95.0834    9.3130 C.2     1  UNL1        0.3799
     18 N          68.2651   94.4448    8.1957 N.2     1  UNL1       -0.0106
     19 C          68.3319   92.9702    8.4624 C.2     1  UNL1        0.3351
     20 N          67.6026   92.6974    9.7445 N.2     1  UNL1       -0.2103
     21 C          67.0851   94.0035   10.2702 C.3     1  UNL1        0.2404
     22 C          63.4520   86.2486   15.2464 C.ar    1  UNL1        0.0517
     23 C          63.3267   85.0901   16.1909 C.ar    1  UNL1        0.0147
     24 C          62.9294   83.7397   15.6729 C.ar    1  UNL1        0.0014
     25 C          62.6573   83.5477   14.2103 C.ar    1  UNL1        0.0046
     26 C          62.7826   84.7063   13.2657 C.ar    1  UNL1        0.0549
     27 C          63.1799   86.0568   13.7839 C.ar    1  UNL1        0.0192
     28 C          62.5105   84.5144   11.8032 C.2     1  UNL1        0.2495
     29 O          62.4264   83.1303   11.2313 O.2     1  UNL1       -0.2698
     30 N          62.3225   85.7067   10.9125 N.am    1  UNL1       -0.2804
     31 H          62.3777   86.6151   11.2879 H       1  UNL1        0.1552
     32 C          62.0504   85.5148    9.4499 C.ar    1  UNL1        0.0505
     33 C          60.7394   85.9526    8.8672 C.ar    1  UNL1        0.0147
     34 C          60.4674   85.7607    7.4045 C.ar    1  UNL1        0.0013
     35 C          61.5064   85.1310    6.5248 C.ar    1  UNL1        0.0001
     36 C          62.8174   84.6932    7.1075 C.ar    1  UNL1        0.0013
     37 C          63.0894   84.8851    8.5701 C.ar    1  UNL1        0.0147
@<TRIPOS>BOND
     1     1     2    2
     2     2     3   am
     3     3     7    1
     4     7     8   ar
     5     8     9   ar
     6     9    10   ar
     7    10    13    1
     8    13    14    2
     9    14    15    1
    10    15    16    2
    11    16    17    1
    12    17    18    2
    13    18    19    1
    14    19    20    2
    15    20    21    1
    16    10    11   ar
    17    11    12   ar
    18     2     4   am
    19     4    22    1
    20    22    23   ar
    21    23    24   ar
    22    24    25   ar
    23    25    26   ar
    24    26    28    1
    25    28    29    2
    26    28    30   am
    27    30    32    1
    28    32    33   ar
    29    33    34   ar
    30    34    35   ar
    31    35    36   ar
    32    36    37   ar
    33    26    27   ar
    34    12     7   ar
    35    27    22   ar
    36    21    13    1
    37    37    32   ar
    38    21    17    1
    39     3     5    1
    40     4     6    1
    41    30    31    1
@<TRIPOS>MOLECULE
*****
 37 41 0 0 0
SMALL
GASTEIGER

@<TRIPOS>ATOM
      1 O          60.9958   90.2782    4.9191 O.2     1  UNL1       -0.2522
      2 C          59.7040   90.9872    5.1992 C.2     1  UNL1        0.3082
      3 N          59.2542   92.1065    4.3076 N.am    1  UNL1       -0.2681
      4 N          58.8619   90.5769    6.3706 N.am    1  UNL1       -0.2681
      5 H          58.4063   92.5719    4.4913 H       1  UNL1        0.1564
      6 H          58.0140   91.0422    6.5544 H       1  UNL1        0.1564
      7 C          60.0962   92.5168    3.1361 C.ar    1  UNL1        0.0516
      8 C          61.5879   92.3707    3.1967 C.ar    1  UNL1        0.0147
      9 C          62.4300   92.7810    2.0252 C.ar    1  UNL1        0.0010
     10 C          61.7804   93.3375    0.7929 C.ar    1  UNL1       -0.0014
     11 C          60.2888   93.4837    0.7322 C.ar    1  UNL1        0.0010
     12 C          59.4467   93.0733    1.9038 C.ar    1  UNL1        0.0147
     13 C          62.6225   93.7478   -0.3786 C.2     1  UNL1        0.0158
     14 C          62.3474   93.1749   -1.7373 C.2     1  UNL1        0.0487
     15 C          63.1894   93.5852   -2.9088 C.2     1  UNL1        0.2355
     16 N          64.3067   94.5684   -2.7217 N.2     1  UNL1       -0.0325
     17 C          64.5819   95.1413   -1.3630 C.2     1  UNL1        0.3799
     18 N          65.6067   96.1226   -0.8762 N.2     1  UNL1       -0.0106
     19 C          65.3979   96.3187    0.5961 C.2     1  UNL1        0.3351
     20 N          64.2441   95.4587    1.0194 N.2     1  UNL1       -0.2103
     21 C          63.7398   94.7310   -0.1915 C.3     1  UNL1        0.2404
     22 C          59.3117   89.4575    7.2623 C.ar    1  UNL1        0.0517
     23 C          59.0679   88.0335    6.8591 C.ar    1  UNL1        0.0147
     24 C          59.5176   86.9141    7.7506 C.ar    1  UNL1        0.0014
     25 C          60.2111   87.2189    9.0453 C.ar    1  UNL1        0.0046
     26 C          60.4549   88.6430    9.4485 C.ar    1  UNL1        0.0549
     27 C          60.0052   89.7624    8.5569 C.ar    1  UNL1        0.0192
     28 C          61.1484   88.9478   10.7431 C.2     1  UNL1        0.2495
     29 O          60.3613   89.0135   12.0182 O.2     1  UNL1       -0.2698
     30 N          62.6292   89.1869   10.7626 N.am    1  UNL1       -0.2804
     31 H          63.1458   89.1438    9.9257 H       1  UNL1        0.1552
     32 C          63.3227   89.4917   12.0573 C.ar    1  UNL1        0.0505
     33 C          63.7334   90.8989   12.3750 C.ar    1  UNL1        0.0147
     34 C          64.4269   91.2036   13.6697 C.ar    1  UNL1        0.0013
     35 C          64.7098   90.1011   14.6466 C.ar    1  UNL1        0.0001
     36 C          64.2991   88.6938   14.3289 C.ar    1  UNL1        0.0013
     37 C          63.6055   88.3891   13.0342 C.ar    1  UNL1        0.0147
@<TRIPOS>BOND
     1     1     2    2
     2     2     3   am
     3     3     7    1
     4     7     8   ar
     5     8     9   ar
     6     9    10   ar
     7    10    13    1
     8    13    14    2
     9    14    15    1
    10    15    16    2
    11    16    17    1
    12    17    18    2
    13    18    19    1
    14    19    20    2
    15    20    21    1
    16    10    11   ar
    17    11    12   ar
    18     2     4   am
    19     4    22    1
    20    22    23   ar
    21    23    24   ar
    22    24    25   ar
    23    25    26   ar
    24    26    28    1
    25    28    29    2
    26    28    30   am
    27    30    32    1
    28    32    33   ar
    29    33    34   ar
    30    34    35   ar
    31    35    36   ar
    32    36    37   ar
    33    26    27   ar
    34    12     7   ar
    35    27    22   ar
    36    21    13    1
    37    37    32   ar
    38    21    17    1
    39     3     5    1
    40     4     6    1
    41    30    31    1
@<TRIPOS>MOLECULE
*****
 37 41 0 0 0
SMALL
GASTEIGER

@<TRIPOS>ATOM
      1 O          61.2853   90.5749    5.2247 O.2     1  UNL1       -0.2522
      2 C          59.8502   91.0103    5.1945 C.2     1  UNL1        0.3082
      3 N          59.4084   92.0707    4.2298 N.am    1  UNL1       -0.2681
      4 N          58.8570   90.3854    6.1287 N.am    1  UNL1       -0.2681
      5 H          58.4665   92.3564    4.2099 H       1  UNL1        0.1564
      6 H          57.9151   90.6712    6.1088 H       1  UNL1        0.1564
      7 C          60.4015   92.6956    3.2955 C.ar    1  UNL1        0.0516
      8 C          61.7364   92.0472    3.0767 C.ar    1  UNL1        0.0147
      9 C          62.7296   92.6721    2.1424 C.ar    1  UNL1        0.0010
     10 C          62.3880   93.9455    1.4269 C.ar    1  UNL1       -0.0014
     11 C          61.0532   94.5939    1.6457 C.ar    1  UNL1        0.0010
     12 C          60.0600   93.9689    2.5801 C.ar    1  UNL1        0.0147
     13 C          63.3813   94.5704    0.4926 C.2     1  UNL1        0.0158
     14 C          64.3908   95.5487    1.0160 C.2     1  UNL1        0.0487
     15 C          65.3840   96.1736    0.0818 C.2     1  UNL1        0.2355
     16 N          65.3678   95.8203   -1.3760 N.2     1  UNL1       -0.0325
     17 C          64.3583   94.8421   -1.8994 C.2     1  UNL1        0.3799
     18 N          64.1020   94.3041   -3.2760 N.2     1  UNL1       -0.0106
     19 C          62.9503   93.3467   -3.1924 C.2     1  UNL1        0.3351
     20 N          62.4948   93.2929   -1.7642 N.2     1  UNL1       -0.2103
     21 C          63.3650   94.2172   -0.9651 C.3     1  UNL1        0.2404
     22 C          59.2989   89.3250    7.0934 C.ar    1  UNL1        0.0517
     23 C          59.0314   87.8799    6.7935 C.ar    1  UNL1        0.0147
     24 C          59.4732   86.8195    7.7580 C.ar    1  UNL1        0.0014
     25 C          60.1825   87.2043    9.0225 C.ar    1  UNL1        0.0046
     26 C          60.4499   88.6495    9.3224 C.ar    1  UNL1        0.0549
     27 C          60.0081   89.7099    8.3578 C.ar    1  UNL1        0.0192
     28 C          61.1592   89.0343   10.5868 C.2     1  UNL1        0.2495
     29 O          60.4076   89.0801   11.8842 O.2     1  UNL1       -0.2698
     30 N          62.6200   89.3734   10.5540 N.am    1  UNL1       -0.2804
     31 H          63.1133   89.3434    9.7025 H       1  UNL1        0.1552
     32 C          63.3293   89.7583   11.8184 C.ar    1  UNL1        0.0505
     33 C          63.8353   91.1588   11.9981 C.ar    1  UNL1        0.0147
     34 C          64.5446   91.5436   13.2626 C.ar    1  UNL1        0.0013
     35 C          64.7478   90.5278   14.3473 C.ar    1  UNL1        0.0001
     36 C          64.2418   89.1272   14.1677 C.ar    1  UNL1        0.0013
     37 C          63.5325   88.7424   12.9032 C.ar    1  UNL1        0.0147
@<TRIPOS>BOND
     1     1     2    2
     2     2     3   am
     3     3     7    1
     4     7     8   ar
     5     8     9   ar
     6     9    10   ar
     7    10    13    1
     8    13    14    2
     9    14    15    1
    10    15    16    2
    11    16    17    1
    12    17    18    2
    13    18    19    1
    14    19    20    2
    15    20    21    1
    16    10    11   ar
    17    11    12   ar
    18     2     4   am
    19     4    22    1
    20    22    23   ar
    21    23    24   ar
    22    24    25   ar
    23    25    26   ar
    24    26    28    1
    25    28    29    2
    26    28    30   am
    27    30    32    1
    28    32    33   ar
    29    33    34   ar
    30    34    35   ar
    31    35    36   ar
    32    36    37   ar
    33    26    27   ar
    34    12     7   ar
    35    27    22   ar
    36    21    13    1
    37    37    32   ar
    38    21    17    1
    39     3     5    1
    40     4     6    1
    41    30    31    1
@<TRIPOS>MOLECULE
*****
 37 41 0 0 0
SMALL
GASTEIGER

@<TRIPOS>ATOM
      1 O          64.5203   88.9454   14.2363 O.2     1  UNL1       -0.2522
      2 C          64.1007   89.8947   15.3192 C.2     1  UNL1        0.3082
      3 N          64.3224   91.3688   15.1517 N.am    1  UNL1       -0.2681
      4 N          63.4595   89.3700   16.5696 N.am    1  UNL1       -0.2681
      5 H          64.0470   91.9919   15.8625 H       1  UNL1        0.1564
      6 H          63.1841   89.9931   17.2803 H       1  UNL1        0.1564
      7 C          64.9636   91.8935   13.9014 C.ar    1  UNL1        0.0516
      8 C          64.3361   91.6225   12.5661 C.ar    1  UNL1        0.0147
      9 C          64.9773   92.1473   11.3158 C.ar    1  UNL1        0.0010
     10 C          66.2461   92.9430   11.4006 C.ar    1  UNL1       -0.0014
     11 C          66.8736   93.2140   12.7359 C.ar    1  UNL1        0.0010
     12 C          66.2323   92.6892   13.9862 C.ar    1  UNL1        0.0147
     13 C          66.8873   93.4677   10.1502 C.2     1  UNL1        0.0158
     14 C          67.9987   92.6998    9.4982 C.2     1  UNL1        0.0487
     15 C          68.6399   93.2245    8.2479 C.2     1  UNL1        0.2355
     16 N          68.1698   94.5172    7.6494 N.2     1  UNL1       -0.0325
     17 C          67.0584   95.2851    8.3014 C.2     1  UNL1        0.3799
     18 N          66.3882   96.5786    7.9444 N.2     1  UNL1       -0.0106
     19 C          65.3327   96.8534    8.9742 C.2     1  UNL1        0.3351
     20 N          65.3506   95.7296    9.9677 N.2     1  UNL1       -0.2103
     21 C          66.4172   94.7603    9.5518 C.3     1  UNL1        0.2404
     22 C          63.2378   87.8959   16.7371 C.ar    1  UNL1        0.0517
     23 C          62.6952   87.3612   18.0292 C.ar    1  UNL1        0.0147
     24 C          62.4735   85.8872   18.1967 C.ar    1  UNL1        0.0014
     25 C          62.7944   84.9478   17.0722 C.ar    1  UNL1        0.0046
     26 C          63.3371   85.4826   15.7800 C.ar    1  UNL1        0.0549
     27 C          63.5588   86.9567   15.6125 C.ar    1  UNL1        0.0192
     28 C          63.6581   84.5433   14.6555 C.2     1  UNL1        0.2495
     29 O          65.0837   84.1740   14.3705 O.2     1  UNL1       -0.2698
     30 N          62.5535   83.9733   13.8158 N.am    1  UNL1       -0.2804
     31 H          61.6178   84.2157   14.0028 H       1  UNL1        0.1552
     32 C          62.8744   83.0340   12.6912 C.ar    1  UNL1        0.0505
     33 C          62.4693   81.5924   12.7793 C.ar    1  UNL1        0.0147
     34 C          62.7903   80.6532   11.6546 C.ar    1  UNL1        0.0013
     35 C          63.5164   81.1555   10.4420 C.ar    1  UNL1        0.0001
     36 C          63.9214   82.5971   10.3539 C.ar    1  UNL1        0.0013
     37 C          63.6004   83.5363   11.4786 C.ar    1  UNL1        0.0147
@<TRIPOS>BOND
     1     1     2    2
     2     2     3   am
     3     3     7    1
     4     7     8   ar
     5     8     9   ar
     6     9    10   ar
     7    10    13    1
     8    13    14    2
     9    14    15    1
    10    15    16    2
    11    16    17    1
    12    17    18    2
    13    18    19    1
    14    19    20    2
    15    20    21    1
    16    10    11   ar
    17    11    12   ar
    18     2     4   am
    19     4    22    1
    20    22    23   ar
    21    23    24   ar
    22    24    25   ar
    23    25    26   ar
    24    26    28    1
    25    28    29    2
    26    28    30   am
    27    30    32    1
    28    32    33   ar
    29    33    34   ar
    30    34    35   ar
    31    35    36   ar
    32    36    37   ar
    33    26    27   ar
    34    12     7   ar
    35    27    22   ar
    36    21    13    1
    37    37    32   ar
    38    21    17    1
    39     3     5    1
    40     4     6    1
    41    30    31    1
@<TRIPOS>MOLECULE
*****
 37 41 0 0 0
SMALL
GASTEIGER

@<TRIPOS>ATOM
      1 O          64.3265   89.2126   14.3491 O.2     1  UNL1       -0.2522
      2 C          64.1097   90.0071   15.6028 C.2     1  UNL1        0.3082
      3 N          64.4206   91.4744   15.6240 N.am    1  UNL1       -0.2681
      4 N          63.5822   89.3344   16.8353 N.am    1  UNL1       -0.2681
      5 H          64.2783   91.9959   16.4468 H       1  UNL1        0.1564
      6 H          63.4399   89.8559   17.6581 H       1  UNL1        0.1564
      7 C          64.9481   92.1472   14.3915 C.ar    1  UNL1        0.0516
      8 C          66.0687   93.1385   14.4995 C.ar    1  UNL1        0.0147
      9 C          66.5962   93.8112   13.2670 C.ar    1  UNL1        0.0010
     10 C          66.0032   93.4927   11.9265 C.ar    1  UNL1       -0.0014
     11 C          64.8827   92.5014   11.8185 C.ar    1  UNL1        0.0010
     12 C          64.3552   91.8286   13.0510 C.ar    1  UNL1        0.0147
     13 C          66.5308   94.1655   10.6940 C.2     1  UNL1        0.0158
     14 C          66.1647   95.5905   10.4024 C.2     1  UNL1        0.0487
     15 C          66.6922   96.2633    9.1700 C.2     1  UNL1        0.2355
     16 N          67.5860   95.5110    8.2290 N.2     1  UNL1       -0.0325
     17 C          67.9522   94.0859    8.5206 C.2     1  UNL1        0.3799
     18 N          68.8070   93.0983    7.7832 N.2     1  UNL1       -0.0106
     19 C          68.8077   91.8151    8.5600 C.2     1  UNL1        0.3351
     20 N          67.9534   92.0097    9.7774 N.2     1  UNL1       -0.2103
     21 C          67.4246   93.4132    9.7531 C.3     1  UNL1        0.2404
     22 C          63.2713   87.8670   16.8141 C.ar    1  UNL1        0.0517
     23 C          62.5855   87.2288   17.9855 C.ar    1  UNL1        0.0147
     24 C          62.2746   85.7615   17.9645 C.ar    1  UNL1        0.0014
     25 C          62.6497   84.9325   16.7720 C.ar    1  UNL1        0.0046
     26 C          63.3356   85.5707   15.6005 C.ar    1  UNL1        0.0549
     27 C          63.6464   87.0381   15.6216 C.ar    1  UNL1        0.0192
     28 C          63.7106   84.7418   14.4081 C.2     1  UNL1        0.2495
     29 O          65.1554   84.5418   14.0580 O.2     1  UNL1       -0.2698
     30 N          62.6408   84.1126   13.5655 N.am    1  UNL1       -0.2804
     31 H          61.6925   84.2439   13.7952 H       1  UNL1        0.1552
     32 C          63.0158   83.2836   12.3730 C.ar    1  UNL1        0.0505
     33 C          62.7175   81.8136   12.3577 C.ar    1  UNL1        0.0147
     34 C          63.0925   80.9847   11.1651 C.ar    1  UNL1        0.0013
     35 C          63.7658   81.6256    9.9880 C.ar    1  UNL1        0.0001
     36 C          64.0641   83.0956   10.0032 C.ar    1  UNL1        0.0013
     37 C          63.6891   83.9246   11.1958 C.ar    1  UNL1        0.0147
@<TRIPOS>BOND
     1     1     2    2
     2     2     3   am
     3     3     7    1
     4     7     8   ar
     5     8     9   ar
     6     9    10   ar
     7    10    13    1
     8    13    14    2
     9    14    15    1
    10    15    16    2
    11    16    17    1
    12    17    18    2
    13    18    19    1
    14    19    20    2
    15    20    21    1
    16    10    11   ar
    17    11    12   ar
    18     2     4   am
    19     4    22    1
    20    22    23   ar
    21    23    24   ar
    22    24    25   ar
    23    25    26   ar
    24    26    28    1
    25    28    29    2
    26    28    30   am
    27    30    32    1
    28    32    33   ar
    29    33    34   ar
    30    34    35   ar
    31    35    36   ar
    32    36    37   ar
    33    26    27   ar
    34    12     7   ar
    35    27    22   ar
    36    21    13    1
    37    37    32   ar
    38    21    17    1
    39     3     5    1
    40     4     6    1
    41    30    31    1
@<TRIPOS>MOLECULE
*****
 37 41 0 0 0
SMALL
GASTEIGER

@<TRIPOS>ATOM
      1 O          65.1493   89.0996   14.3872 O.2     1  UNL1       -0.2522
      2 C          64.2755   89.4969   15.5399 C.2     1  UNL1        0.3082
      3 N          63.2814   88.5222   16.0982 N.am    1  UNL1       -0.2681
      4 N          64.3959   90.8688   16.1342 N.am    1  UNL1       -0.2681
      5 H          62.7079   88.7829   16.8548 H       1  UNL1        0.1564
      6 H          63.8224   91.1295   16.8907 H       1  UNL1        0.1564
      7 C          63.1611   87.1503   15.5039 C.ar    1  UNL1        0.0516
      8 C          63.5557   86.9141   14.0761 C.ar    1  UNL1        0.0147
      9 C          63.4354   85.5423   13.4818 C.ar    1  UNL1        0.0010
     10 C          62.9204   84.4063   14.3153 C.ar    1  UNL1       -0.0014
     11 C          62.5258   84.6424   15.7430 C.ar    1  UNL1        0.0010
     12 C          62.6461   86.0144   16.3373 C.ar    1  UNL1        0.0147
     13 C          62.8001   83.0343   13.7209 C.2     1  UNL1        0.0158
     14 C          62.2273   81.9120   14.5347 C.2     1  UNL1        0.0487
     15 C          62.1070   80.5401   13.9404 C.2     1  UNL1        0.2355
     16 N          62.5595   80.2904   12.5322 N.2     1  UNL1       -0.0325
     17 C          63.1322   81.4128   11.7184 C.2     1  UNL1        0.3799
     18 N          63.6580   81.4679   10.3146 N.2     1  UNL1       -0.0106
     19 C          64.1032   82.8740   10.0414 C.2     1  UNL1        0.3351
     20 N          63.8527   83.6879   11.2763 N.2     1  UNL1       -0.2103
     21 C          63.2525   82.7847   12.3127 C.3     1  UNL1        0.2404
     22 C          65.3900   91.8436   15.5758 C.ar    1  UNL1        0.0517
     23 C          66.5052   92.3546   16.4390 C.ar    1  UNL1        0.0147
     24 C          67.4993   93.3294   15.8807 C.ar    1  UNL1        0.0014
     25 C          67.3782   93.7930   14.4593 C.ar    1  UNL1        0.0046
     26 C          66.2629   93.2819   13.5961 C.ar    1  UNL1        0.0549
     27 C          65.2688   92.3071   14.1545 C.ar    1  UNL1        0.0192
     28 C          66.1417   93.7455   12.1748 C.2     1  UNL1        0.2495
     29 O          65.7204   92.7822   11.1050 O.2     1  UNL1       -0.2698
     30 N          66.4419   95.1725   11.8231 N.am    1  UNL1       -0.2804
     31 H          66.7184   95.8048   12.5253 H       1  UNL1        0.1552
     32 C          66.3207   95.6362   10.4017 C.ar    1  UNL1        0.0505
     33 C          67.4205   95.3492    9.4229 C.ar    1  UNL1        0.0147
     34 C          67.2993   95.8129    8.0015 C.ar    1  UNL1        0.0013
     35 C          66.0783   96.5635    7.5590 C.ar    1  UNL1        0.0001
     36 C          64.9785   96.8505    8.5379 C.ar    1  UNL1        0.0013
     37 C          65.0998   96.3868    9.9593 C.ar    1  UNL1        0.0147
@<TRIPOS>BOND
     1     1     2    2
     2     2     3   am
     3     3     7    1
     4     7     8   ar
     5     8     9   ar
     6     9    10   ar
     7    10    13    1
     8    13    14    2
     9    14    15    1
    10    15    16    2
    11    16    17    1
    12    17    18    2
    13    18    19    1
    14    19    20    2
    15    20    21    1
    16    10    11   ar
    17    11    12   ar
    18     2     4   am
    19     4    22    1
    20    22    23   ar
    21    23    24   ar
    22    24    25   ar
    23    25    26   ar
    24    26    28    1
    25    28    29    2
    26    28    30   am
    27    30    32    1
    28    32    33   ar
    29    33    34   ar
    30    34    35   ar
    31    35    36   ar
    32    36    37   ar
    33    26    27   ar
    34    12     7   ar
    35    27    22   ar
    36    21    13    1
    37    37    32   ar
    38    21    17    1
    39     3     5    1
    40     4     6    1
    41    30    31    1
@<TRIPOS>MOLECULE
*****
 37 41 0 0 0
SMALL
GASTEIGER

@<TRIPOS>ATOM
      1 O          60.9078   90.8093    5.1555 O.2     1  UNL1       -0.2522
      2 C          59.4090   90.8616    5.1833 C.2     1  UNL1        0.3082
      3 N          58.6537   90.1501    6.2666 N.am    1  UNL1       -0.2681
      4 N          58.6655   91.6254    4.1281 N.am    1  UNL1       -0.2681
      5 H          57.6700   90.1844    6.2849 H       1  UNL1        0.1564
      6 H          57.6817   91.6597    4.1464 H       1  UNL1        0.1564
      7 C          59.3972   89.3863    7.3219 C.ar    1  UNL1        0.0516
      8 C          59.3882   87.8863    7.3086 C.ar    1  UNL1        0.0147
      9 C          60.1318   87.1226    8.3639 C.ar    1  UNL1        0.0010
     10 C          60.8843   87.8587    9.4326 C.ar    1  UNL1       -0.0014
     11 C          60.8933   89.3586    9.4458 C.ar    1  UNL1        0.0010
     12 C          60.1497   90.1224    8.3904 C.ar    1  UNL1        0.0147
     13 C          61.6279   87.0948   10.4879 C.2     1  UNL1        0.0158
     14 C          61.5845   85.5955   10.4993 C.2     1  UNL1        0.0487
     15 C          62.3280   84.8317   11.5545 C.2     1  UNL1        0.2355
     16 N          63.1149   85.5671   12.5985 N.2     1  UNL1       -0.0325
     17 C          63.1583   87.0664   12.5871 C.2     1  UNL1        0.3799
     18 N          63.8440   88.0575   13.4802 N.2     1  UNL1       -0.0106
     19 C          63.5243   89.4338   12.9769 C.2     1  UNL1        0.3351
     20 N          62.6410   89.2934   11.7727 N.2     1  UNL1       -0.2103
     21 C          62.4148   87.8303   11.5318 C.3     1  UNL1        0.2404
     22 C          59.4207   92.3369    3.0448 C.ar    1  UNL1        0.0517
     23 C          60.8190   92.8177    3.2970 C.ar    1  UNL1        0.0147
     24 C          61.5743   93.5292    2.2138 C.ar    1  UNL1        0.0014
     25 C          60.9313   93.7600    0.8784 C.ar    1  UNL1        0.0046
     26 C          59.5329   93.2792    0.6262 C.ar    1  UNL1        0.0549
     27 C          58.7776   92.5677    1.7095 C.ar    1  UNL1        0.0192
     28 C          58.8899   93.5100   -0.7091 C.2     1  UNL1        0.2495
     29 O          58.2108   94.8157   -0.9989 O.2     1  UNL1       -0.2698
     30 N          58.9259   92.4351   -1.7547 N.am    1  UNL1       -0.2804
     31 H          59.3716   91.5781   -1.5645 H       1  UNL1        0.1552
     32 C          58.2829   92.6658   -3.0901 C.ar    1  UNL1        0.0505
     33 C          57.0208   91.9396   -3.4503 C.ar    1  UNL1        0.0147
     34 C          56.3778   92.1704   -4.7858 C.ar    1  UNL1        0.0013
     35 C          56.9969   93.1274   -5.7609 C.ar    1  UNL1        0.0001
     36 C          58.2590   93.8536   -5.4007 C.ar    1  UNL1        0.0013
     37 C          58.9020   93.6227   -4.0652 C.ar    1  UNL1        0.0147
@<TRIPOS>BOND
     1     1     2    2
     2     2     3   am
     3     3     7    1
     4     7     8   ar
     5     8     9   ar
     6     9    10   ar
     7    10    13    1
     8    13    14    2
     9    14    15    1
    10    15    16    2
    11    16    17    1
    12    17    18    2
    13    18    19    1
    14    19    20    2
    15    20    21    1
    16    10    11   ar
    17    11    12   ar
    18     2     4   am
    19     4    22    1
    20    22    23   ar
    21    23    24   ar
    22    24    25   ar
    23    25    26   ar
    24    26    28    1
    25    28    29    2
    26    28    30   am
    27    30    32    1
    28    32    33   ar
    29    33    34   ar
    30    34    35   ar
    31    35    36   ar
    32    36    37   ar
    33    26    27   ar
    34    12     7   ar
    35    27    22   ar
    36    21    13    1
    37    37    32   ar
    38    21    17    1
    39     3     5    1
    40     4     6    1
    41    30    31    1
@<TRIPOS>MOLECULE
*****
 37 41 0 0 0
SMALL
GASTEIGER

@<TRIPOS>ATOM
      1 O          59.9633   91.7968    1.8119 O.2     1  UNL1       -0.2522
      2 C          60.3301   93.0396    2.5676 C.2     1  UNL1        0.3082
      3 N          61.1517   94.1053    1.9048 N.am    1  UNL1       -0.2681
      4 N          59.8753   93.2167    3.9859 N.am    1  UNL1       -0.2681
      5 H          61.3925   94.9210    2.4007 H       1  UNL1        0.1564
      6 H          60.1160   94.0324    4.4818 H       1  UNL1        0.1564
      7 C          61.6065   93.9282    0.4865 C.ar    1  UNL1        0.0516
      8 C          63.0700   93.8169    0.1764 C.ar    1  UNL1        0.0147
      9 C          63.5248   93.6398   -1.2419 C.ar    1  UNL1        0.0010
     10 C          62.5162   93.5740   -2.3503 C.ar    1  UNL1       -0.0014
     11 C          61.0528   93.6853   -2.0403 C.ar    1  UNL1        0.0010
     12 C          60.5980   93.8624   -0.6219 C.ar    1  UNL1        0.0147
     13 C          62.9710   93.3969   -3.7687 C.2     1  UNL1        0.0158
     14 C          64.0733   92.4309   -4.0877 C.2     1  UNL1        0.0487
     15 C          64.5282   92.2538   -5.5060 C.2     1  UNL1        0.2355
     16 N          63.8808   93.0426   -6.6054 N.2     1  UNL1       -0.0325
     17 C          62.7785   94.0086   -6.2864 C.2     1  UNL1        0.3799
     18 N          61.9583   94.9174   -7.1531 N.2     1  UNL1       -0.0106
     19 C          60.9965   95.6562   -6.2704 C.2     1  UNL1        0.3351
     20 N          61.2222   95.2040   -4.8582 N.2     1  UNL1       -0.2103
     21 C          62.3236   94.1857   -4.8680 C.3     1  UNL1        0.2404
     22 C          59.0536   92.1510    4.6487 C.ar    1  UNL1        0.0517
     23 C          57.5790   92.0691    4.3862 C.ar    1  UNL1        0.0147
     24 C          56.7573   91.0035    5.0490 C.ar    1  UNL1        0.0014
     25 C          57.4102   90.0197    5.9742 C.ar    1  UNL1        0.0046
     26 C          58.8849   90.1017    6.2367 C.ar    1  UNL1        0.0549
     27 C          59.7065   91.1674    5.5739 C.ar    1  UNL1        0.0192
     28 C          59.5377   89.1180    7.1619 C.2     1  UNL1        0.2495
     29 O          59.5039   87.6526    6.8437 O.2     1  UNL1       -0.2698
     30 N          60.2245   89.5998    8.4055 N.am    1  UNL1       -0.2804
     31 H          60.2467   90.5616    8.6143 H       1  UNL1        0.1552
     32 C          60.8774   88.6161    9.3307 C.ar    1  UNL1        0.0505
     33 C          60.4498   87.1784    9.3199 C.ar    1  UNL1        0.0147
     34 C          61.1028   86.1948   10.2452 C.ar    1  UNL1        0.0013
     35 C          62.1833   86.6489   11.1813 C.ar    1  UNL1        0.0001
     36 C          62.6109   88.0866   11.1921 C.ar    1  UNL1        0.0013
     37 C          61.9579   89.0703   10.2668 C.ar    1  UNL1        0.0147
@<TRIPOS>BOND
     1     1     2    2
     2     2     3   am
     3     3     7    1
     4     7     8   ar
     5     8     9   ar
     6     9    10   ar
     7    10    13    1
     8    13    14    2
     9    14    15    1
    10    15    16    2
    11    16    17    1
    12    17    18    2
    13    18    19    1
    14    19    20    2
    15    20    21    1
    16    10    11   ar
    17    11    12   ar
    18     2     4   am
    19     4    22    1
    20    22    23   ar
    21    23    24   ar
    22    24    25   ar
    23    25    26   ar
    24    26    28    1
    25    28    29    2
    26    28    30   am
    27    30    32    1
    28    32    33   ar
    29    33    34   ar
    30    34    35   ar
    31    35    36   ar
    32    36    37   ar
    33    26    27   ar
    34    12     7   ar
    35    27    22   ar
    36    21    13    1
    37    37    32   ar
    38    21    17    1
    39     3     5    1
    40     4     6    1
    41    30    31    1
@<TRIPOS>MOLECULE
*****
 37 41 0 0 0
SMALL
GASTEIGER

@<TRIPOS>ATOM
      1 O          61.3419   89.9810    6.1004 O.2     1  UNL1       -0.2522
      2 C          59.9229   90.3934    6.3580 C.2     1  UNL1        0.3082
      3 N          59.2449   91.3638    5.4367 N.am    1  UNL1       -0.2681
      4 N          59.1820   89.8354    7.5367 N.am    1  UNL1       -0.2681
      5 H          58.3136   91.6344    5.6057 H       1  UNL1        0.1564
      6 H          58.2506   90.1061    7.7058 H       1  UNL1        0.1564
      7 C          59.9858   91.9217    4.2579 C.ar    1  UNL1        0.0516
      8 C          59.2802   92.8187    3.2845 C.ar    1  UNL1        0.0147
      9 C          60.0211   93.3767    2.1058 C.ar    1  UNL1        0.0010
     10 C          61.4679   93.0377    1.9003 C.ar    1  UNL1       -0.0014
     11 C          62.1736   92.1407    2.8736 C.ar    1  UNL1        0.0010
     12 C          61.4325   91.5827    4.0525 C.ar    1  UNL1        0.0147
     13 C          62.2088   93.5956    0.7215 C.2     1  UNL1        0.0158
     14 C          63.6935   93.7962    0.7953 C.2     1  UNL1        0.0487
     15 C          64.4345   94.3541   -0.3835 C.2     1  UNL1        0.2355
     16 N          63.6908   94.7116   -1.6362 N.2     1  UNL1       -0.0325
     17 C          62.2061   94.5111   -1.7100 C.2     1  UNL1        0.3799
     18 N          61.2115   94.7697   -2.8026 N.2     1  UNL1       -0.0106
     19 C          59.8558   94.3715   -2.2991 C.2     1  UNL1        0.3351
     20 N          60.0125   93.8668   -0.8953 N.2     1  UNL1       -0.2103
     21 C          61.4651   93.9531   -0.5312 C.3     1  UNL1        0.2404
     22 C          59.8600   88.8650    8.4580 C.ar    1  UNL1        0.0517
     23 C          59.5851   87.3957    8.3337 C.ar    1  UNL1        0.0147
     24 C          60.2630   86.4253    9.2550 C.ar    1  UNL1        0.0014
     25 C          61.2159   86.9242   10.3005 C.ar    1  UNL1        0.0046
     26 C          61.4908   88.3936   10.4248 C.ar    1  UNL1        0.0549
     27 C          60.8128   89.3640    9.5035 C.ar    1  UNL1        0.0192
     28 C          62.4436   88.8925   11.4703 C.2     1  UNL1        0.2495
     29 O          63.0595   87.9316   12.4435 O.2     1  UNL1       -0.2698
     30 N          62.7806   90.3525   11.5426 N.am    1  UNL1       -0.2804
     31 H          62.3763   90.9832   10.9038 H       1  UNL1        0.1552
     32 C          63.7334   90.8515   12.5881 C.ar    1  UNL1        0.0505
     33 C          64.8926   91.7181   12.1941 C.ar    1  UNL1        0.0147
     34 C          65.8454   92.2171   13.2397 C.ar    1  UNL1        0.0013
     35 C          65.6390   91.8493   14.6792 C.ar    1  UNL1        0.0001
     36 C          64.4798   90.9827   15.0732 C.ar    1  UNL1        0.0013
     37 C          63.5270   90.4837   14.0276 C.ar    1  UNL1        0.0147
@<TRIPOS>BOND
     1     1     2    2
     2     2     3   am
     3     3     7    1
     4     7     8   ar
     5     8     9   ar
     6     9    10   ar
     7    10    13    1
     8    13    14    2
     9    14    15    1
    10    15    16    2
    11    16    17    1
    12    17    18    2
    13    18    19    1
    14    19    20    2
    15    20    21    1
    16    10    11   ar
    17    11    12   ar
    18     2     4   am
    19     4    22    1
    20    22    23   ar
    21    23    24   ar
    22    24    25   ar
    23    25    26   ar
    24    26    28    1
    25    28    29    2
    26    28    30   am
    27    30    32    1
    28    32    33   ar
    29    33    34   ar
    30    34    35   ar
    31    35    36   ar
    32    36    37   ar
    33    26    27   ar
    34    12     7   ar
    35    27    22   ar
    36    21    13    1
    37    37    32   ar
    38    21    17    1
    39     3     5    1
    40     4     6    1
    41    30    31    1
