@<TRIPOS>MOLECULE
*****
 30 33 0 0 0
SMALL
GASTEIGER

@<TRIPOS>ATOM
      1 C          63.3452   87.0207   13.4352 C.ar    1  UNL1        0.0503
      2 C          64.2212   87.4022   14.5914 C.ar    1  UNL1        0.0147
      3 C          64.8093   88.7802   14.6641 C.ar    1  UNL1        0.0013
      4 C          64.5214   89.7766   13.5805 C.ar    1  UNL1        0.0002
      5 C          63.6454   89.3951   12.4242 C.ar    1  UNL1        0.0009
      6 C          63.0573   88.0171   12.3515 C.ar    1  UNL1        0.0092
      7 C          65.1095   91.1546   13.6532 C.ar    1  UNL1        0.0031
      8 C          65.1650   92.0122   12.4238 C.ar    1  UNL1        0.0207
      9 C          65.7531   93.3903   12.4965 C.ar    1  UNL1        0.0989
     10 N          66.2858   93.9106   13.7986 N.ar    1  UNL1       -0.2423
     11 C          66.2303   93.0530   15.0280 C.ar    1  UNL1        0.0989
     12 C          65.6422   91.6750   14.9553 C.ar    1  UNL1        0.0207
     13 C          62.1813   87.6355   11.1952 C.2     1  UNL1       -0.0252
     14 C          61.0506   88.5310   10.7834 C.2     1  UNL1       -0.0303
     15 C          60.1745   88.1494    9.6272 C.3     1  UNL1        0.0257
     16 C          60.4292   86.8723    8.8827 C.3     1  UNL1        0.0050
     17 C          61.5599   85.9768    9.2945 C.3     1  UNL1        0.0050
     18 C          62.4360   86.3585   10.4508 C.3     1  UNL1        0.0261
     19 C          63.5802   84.4539   13.7618 C.2     1  UNL1        0.2837
     20 O          64.9914   84.6432   14.2339 O.2     1  UNL1       -0.2665
     21 N          62.7571   85.6427   13.3625 N.am    1  UNL1       -0.2779
     22 H          61.8309   85.5184   13.0527 H       1  UNL1        0.1553
     23 C          61.4604   81.2057   13.9046 C.ar    1  UNL1        0.1469
     24 C          62.7139   80.7052   13.2500 C.ar    1  UNL1        0.1282
     25 N          63.6605   81.8611   13.1169 N.ar    1  UNL1       -0.2205
     26 C          62.9921   83.0760   13.6892 C.ar    1  UNL1        0.1958
     27 N          61.6324   82.6708   14.1760 N.ar    1  UNL1       -0.3257
     28 H          60.9693   83.2627   14.5994 H       1  UNL1        0.1682
     29 N          59.0354   79.5643   14.5566 N.1     1  UNL1       -0.1893
     30 C          60.2479   80.3850   14.2306 C.1     1  UNL1        0.1194
@<TRIPOS>BOND
     1    29    30    3
     2    30    23    1
     3    23    24   ar
     4    24    25   ar
     5    25    26   ar
     6    26    19    1
     7    19    20    2
     8    19    21   am
     9    21     1    1
    10     1     2   ar
    11     2     3   ar
    12     3     4   ar
    13     4     7    1
    14     7     8   ar
    15     8     9   ar
    16     9    10   ar
    17    10    11   ar
    18    11    12   ar
    19     4     5   ar
    20     5     6   ar
    21     6    13    1
    22    13    14    2
    23    14    15    1
    24    15    16    1
    25    16    17    1
    26    17    18    1
    27    26    27   ar
    28    27    23   ar
    29     6     1   ar
    30    18    13    1
    31    12     7   ar
    32    21    22    1
    33    27    28    1
@<TRIPOS>MOLECULE
*****
 30 33 0 0 0
SMALL
GASTEIGER

@<TRIPOS>ATOM
      1 C          60.5869   87.7176    9.7250 C.ar    1  UNL1        0.0503
      2 C          59.6577   87.1431    8.6972 C.ar    1  UNL1        0.0147
      3 C          59.1984   87.9877    7.5459 C.ar    1  UNL1        0.0013
      4 C          59.6685   89.4068    7.4223 C.ar    1  UNL1        0.0002
      5 C          60.5977   89.9813    8.4501 C.ar    1  UNL1        0.0009
      6 C          61.0569   89.1367    9.6015 C.ar    1  UNL1        0.0092
      7 C          59.2092   90.2515    6.2709 C.ar    1  UNL1        0.0031
      8 C          57.7429   90.4397    6.0168 C.ar    1  UNL1        0.0207
      9 C          57.2836   91.2844    4.8654 C.ar    1  UNL1        0.0989
     10 N          58.2907   91.9407    3.9681 N.ar    1  UNL1       -0.2423
     11 C          59.7570   91.7524    4.2223 C.ar    1  UNL1        0.0989
     12 C          60.2162   90.9078    5.3736 C.ar    1  UNL1        0.0207
     13 C          61.9863   89.7111   10.6294 C.2     1  UNL1       -0.0252
     14 C          61.8959   89.2606   12.0573 C.2     1  UNL1       -0.0303
     15 C          62.8252   89.8350   13.0851 C.3     1  UNL1        0.0257
     16 C          63.8448   90.8600   12.6851 C.3     1  UNL1        0.0050
     17 C          63.9351   91.3105   11.2572 C.3     1  UNL1        0.0050
     18 C          63.0058   90.7360   10.2294 C.3     1  UNL1        0.0261
     19 C          62.1312   85.8569   10.6754 C.2     1  UNL1        0.2837
     20 O          62.7569   85.6855    9.3229 O.2     1  UNL1       -0.2665
     21 N          61.0462   86.8729   10.8765 N.am    1  UNL1       -0.2779
     22 H          60.6356   86.9855   11.7641 H       1  UNL1        0.1553
     23 C          63.1020   83.0937   13.2224 C.ar    1  UNL1        0.1469
     24 C          63.4926   84.3313   13.9746 C.ar    1  UNL1        0.1282
     25 N          63.1765   85.5171   13.1120 N.ar    1  UNL1       -0.2205
     26 C          62.5905   85.0123   11.8267 C.ar    1  UNL1        0.1958
     27 N          62.5445   83.5145   11.8950 N.ar    1  UNL1       -0.3257
     28 H          62.2076   82.9133   11.1919 H       1  UNL1        0.1682
     29 N          63.3861   80.2720   14.2011 N.1     1  UNL1       -0.1893
     30 C          63.2441   81.6828   13.7117 C.1     1  UNL1        0.1194
@<TRIPOS>BOND
     1    29    30    3
     2    30    23    1
     3    23    24   ar
     4    24    25   ar
     5    25    26   ar
     6    26    19    1
     7    19    20    2
     8    19    21   am
     9    21     1    1
    10     1     2   ar
    11     2     3   ar
    12     3     4   ar
    13     4     7    1
    14     7     8   ar
    15     8     9   ar
    16     9    10   ar
    17    10    11   ar
    18    11    12   ar
    19     4     5   ar
    20     5     6   ar
    21     6    13    1
    22    13    14    2
    23    14    15    1
    24    15    16    1
    25    16    17    1
    26    17    18    1
    27    26    27   ar
    28    27    23   ar
    29     6     1   ar
    30    18    13    1
    31    12     7   ar
    32    21    22    1
    33    27    28    1
@<TRIPOS>MOLECULE
*****
 30 33 0 0 0
SMALL
GASTEIGER

@<TRIPOS>ATOM
      1 C          63.6528   85.9787   12.9900 C.ar    1  UNL1        0.0503
      2 C          64.3256   84.8929   13.7763 C.ar    1  UNL1        0.0147
      3 C          64.1083   83.4553   13.4076 C.ar    1  UNL1        0.0013
      4 C          63.2183   83.1035   12.2525 C.ar    1  UNL1        0.0002
      5 C          62.5456   84.1893   11.4662 C.ar    1  UNL1        0.0009
      6 C          62.7628   85.6269   11.8349 C.ar    1  UNL1        0.0092
      7 C          63.0011   81.6657   11.8838 C.ar    1  UNL1        0.0031
      8 C          63.1458   81.2274   10.4567 C.ar    1  UNL1        0.0207
      9 C          62.9286   79.7897   10.0880 C.ar    1  UNL1        0.0989
     10 N          62.5667   78.7904   11.1465 N.ar    1  UNL1       -0.2423
     11 C          62.4220   79.2288   12.5737 C.ar    1  UNL1        0.0989
     12 C          62.6392   80.6665   12.9424 C.ar    1  UNL1        0.0207
     13 C          62.0900   86.7128   11.0486 C.2     1  UNL1       -0.0252
     14 C          60.9238   86.3856   10.1638 C.2     1  UNL1       -0.0303
     15 C          60.2510   87.4714    9.3775 C.3     1  UNL1        0.0257
     16 C          60.7445   88.8845    9.4759 C.3     1  UNL1        0.0050
     17 C          61.9108   89.2118   10.3607 C.3     1  UNL1        0.0050
     18 C          62.5835   88.1258   11.1470 C.3     1  UNL1        0.0261
     19 C          63.8716   87.8288   14.8009 C.2     1  UNL1        0.2837
     20 O          63.6558   86.8035   15.8743 O.2     1  UNL1       -0.2665
     21 N          63.8700   87.4164   13.3587 N.am    1  UNL1       -0.2779
     22 H          64.0116   88.0893   12.6541 H       1  UNL1        0.1553
     23 C          64.9356   91.5408   15.1930 C.ar    1  UNL1        0.1469
     24 C          63.9104   91.4167   16.2810 C.ar    1  UNL1        0.1282
     25 N          63.3871   90.0111   16.2665 N.ar    1  UNL1       -0.2205
     26 C          64.0888   89.2665   15.1696 C.ar    1  UNL1        0.1958
     27 N          65.0458   90.2119   14.5062 N.ar    1  UNL1       -0.3257
     28 H          65.6417   89.9978   13.7523 H       1  UNL1        0.1682
     29 N          66.4923   94.0130   14.5107 N.1     1  UNL1       -0.1893
     30 C          65.7140   92.7769   14.8518 C.1     1  UNL1        0.1194
@<TRIPOS>BOND
     1    29    30    3
     2    30    23    1
     3    23    24   ar
     4    24    25   ar
     5    25    26   ar
     6    26    19    1
     7    19    20    2
     8    19    21   am
     9    21     1    1
    10     1     2   ar
    11     2     3   ar
    12     3     4   ar
    13     4     7    1
    14     7     8   ar
    15     8     9   ar
    16     9    10   ar
    17    10    11   ar
    18    11    12   ar
    19     4     5   ar
    20     5     6   ar
    21     6    13    1
    22    13    14    2
    23    14    15    1
    24    15    16    1
    25    16    17    1
    26    17    18    1
    27    26    27   ar
    28    27    23   ar
    29     6     1   ar
    30    18    13    1
    31    12     7   ar
    32    21    22    1
    33    27    28    1
@<TRIPOS>MOLECULE
*****
 30 33 0 0 0
SMALL
GASTEIGER

@<TRIPOS>ATOM
      1 C          64.2202   90.5015   12.7915 C.ar    1  UNL1        0.0503
      2 C          65.3637   91.2203   13.4437 C.ar    1  UNL1        0.0147
      3 C          65.9536   92.4367   12.7936 C.ar    1  UNL1        0.0013
      4 C          65.3998   92.9341   11.4914 C.ar    1  UNL1        0.0002
      5 C          64.2562   92.2153   10.8391 C.ar    1  UNL1        0.0009
      6 C          63.6664   90.9990   11.4892 C.ar    1  UNL1        0.0092
      7 C          65.9897   94.1505   10.8413 C.ar    1  UNL1        0.0031
      8 C          65.8111   95.4994   11.4726 C.ar    1  UNL1        0.0207
      9 C          66.4010   96.7158   10.8226 C.ar    1  UNL1        0.0989
     10 N          67.1695   96.5832    9.5412 N.ar    1  UNL1       -0.2423
     11 C          67.3481   95.2343    8.9099 C.ar    1  UNL1        0.0989
     12 C          66.7582   94.0180    9.5600 C.ar    1  UNL1        0.0207
     13 C          62.5228   90.2800   10.8370 C.2     1  UNL1       -0.0252
     14 C          62.7611   88.9806   10.1266 C.2     1  UNL1       -0.0303
     15 C          61.6176   88.2616    9.4744 C.3     1  UNL1        0.0257
     16 C          60.2356   88.8421    9.5326 C.3     1  UNL1        0.0050
     17 C          59.9973   90.1416   10.2430 C.3     1  UNL1        0.0050
     18 C          61.1409   90.8605   10.8952 C.3     1  UNL1        0.0261
     19 C          64.3825   88.5764   14.5286 C.2     1  UNL1        0.2837
     20 O          65.7247   89.0841   14.9657 O.2     1  UNL1       -0.2665
     21 N          63.6303   89.2851   13.4415 N.am    1  UNL1       -0.2779
     22 H          62.7494   88.9519   13.1546 H       1  UNL1        0.1553
     23 C          63.0295   85.0881   15.5613 C.ar    1  UNL1        0.1469
     24 C          62.7407   85.8884   16.7967 C.ar    1  UNL1        0.1282
     25 N          63.2124   87.2925   16.5602 N.ar    1  UNL1       -0.2205
     26 C          63.7927   87.3601   15.1787 C.ar    1  UNL1        0.1958
     27 N          63.6797   85.9977   14.5613 N.ar    1  UNL1       -0.3257
     28 H          63.9796   85.7449   13.6583 H       1  UNL1        0.1682
     29 N          62.4146   82.1792   15.1607 N.1     1  UNL1       -0.1893
     30 C          62.7221   83.6337   15.3610 C.1     1  UNL1        0.1194
@<TRIPOS>BOND
     1    29    30    3
     2    30    23    1
     3    23    24   ar
     4    24    25   ar
     5    25    26   ar
     6    26    19    1
     7    19    20    2
     8    19    21   am
     9    21     1    1
    10     1     2   ar
    11     2     3   ar
    12     3     4   ar
    13     4     7    1
    14     7     8   ar
    15     8     9   ar
    16     9    10   ar
    17    10    11   ar
    18    11    12   ar
    19     4     5   ar
    20     5     6   ar
    21     6    13    1
    22    13    14    2
    23    14    15    1
    24    15    16    1
    25    16    17    1
    26    17    18    1
    27    26    27   ar
    28    27    23   ar
    29     6     1   ar
    30    18    13    1
    31    12     7   ar
    32    21    22    1
    33    27    28    1
@<TRIPOS>MOLECULE
*****
 30 33 0 0 0
SMALL
GASTEIGER

@<TRIPOS>ATOM
      1 C          63.7832   86.1878   13.3142 C.ar    1  UNL1        0.0503
      2 C          64.3969   85.1167   14.1662 C.ar    1  UNL1        0.0147
      3 C          64.1162   83.6726   13.8732 C.ar    1  UNL1        0.0013
      4 C          63.2218   83.2998   12.7282 C.ar    1  UNL1        0.0002
      5 C          62.6082   84.3709   11.8761 C.ar    1  UNL1        0.0009
      6 C          62.8889   85.8150   12.1691 C.ar    1  UNL1        0.0092
      7 C          62.9411   81.8556   12.4352 C.ar    1  UNL1        0.0031
      8 C          62.4033   80.9624   13.5135 C.ar    1  UNL1        0.0207
      9 C          62.1226   79.5182   13.2205 C.ar    1  UNL1        0.0989
     10 N          62.3798   78.9674   11.8493 N.ar    1  UNL1       -0.2423
     11 C          62.9177   79.8607   10.7709 C.ar    1  UNL1        0.0989
     12 C          63.1984   81.3048   11.0639 C.ar    1  UNL1        0.0207
     13 C          62.2752   86.8862   11.3171 C.2     1  UNL1       -0.0252
     14 C          62.6870   88.3170   11.4991 C.2     1  UNL1       -0.0303
     15 C          62.0734   89.3883   10.6471 C.3     1  UNL1        0.0257
     16 C          61.0480   89.0287    9.6130 C.3     1  UNL1        0.0050
     17 C          60.6362   87.5978    9.4310 C.3     1  UNL1        0.0050
     18 C          61.2499   86.5266   10.2831 C.3     1  UNL1        0.0261
     19 C          63.9232   88.1545   15.0061 C.2     1  UNL1        0.2837
     20 O          63.5018   87.2330   16.1121 O.2     1  UNL1       -0.2665
     21 N          64.0639   87.6320   13.6071 N.am    1  UNL1       -0.2779
     22 H          64.3405   88.2368   12.8812 H       1  UNL1        0.1553
     23 C          65.1662   91.8253   15.2198 C.ar    1  UNL1        0.1469
     24 C          64.1053   91.8164   16.2802 C.ar    1  UNL1        0.1282
     25 N          63.5105   90.4402   16.3292 N.ar    1  UNL1       -0.2205
     26 C          64.2039   89.5986   15.2991 C.ar    1  UNL1        0.1958
     27 N          65.2271   90.4546   14.6135 N.ar    1  UNL1       -0.3257
     28 H          65.8324   90.1673   13.8922 H       1  UNL1        0.1682
     29 N          66.8676   94.1723   14.4473 N.1     1  UNL1       -0.1893
     30 C          66.0169   92.9988   14.8335 C.1     1  UNL1        0.1194
@<TRIPOS>BOND
     1    29    30    3
     2    30    23    1
     3    23    24   ar
     4    24    25   ar
     5    25    26   ar
     6    26    19    1
     7    19    20    2
     8    19    21   am
     9    21     1    1
    10     1     2   ar
    11     2     3   ar
    12     3     4   ar
    13     4     7    1
    14     7     8   ar
    15     8     9   ar
    16     9    10   ar
    17    10    11   ar
    18    11    12   ar
    19     4     5   ar
    20     5     6   ar
    21     6    13    1
    22    13    14    2
    23    14    15    1
    24    15    16    1
    25    16    17    1
    26    17    18    1
    27    26    27   ar
    28    27    23   ar
    29     6     1   ar
    30    18    13    1
    31    12     7   ar
    32    21    22    1
    33    27    28    1
@<TRIPOS>MOLECULE
*****
 30 33 0 0 0
SMALL
GASTEIGER

@<TRIPOS>ATOM
      1 C          61.4801   87.1492    8.9032 C.ar    1  UNL1        0.0503
      2 C          62.2086   85.9523    8.3677 C.ar    1  UNL1        0.0147
      3 C          62.6767   84.8783    9.3043 C.ar    1  UNL1        0.0013
      4 C          62.4163   85.0011   10.7764 C.ar    1  UNL1        0.0002
      5 C          61.6878   86.1980   11.3119 C.ar    1  UNL1        0.0009
      6 C          61.2197   87.2720   10.3753 C.ar    1  UNL1        0.0092
      7 C          62.8844   83.9270   11.7130 C.ar    1  UNL1        0.0031
      8 C          63.5073   84.2965   13.0266 C.ar    1  UNL1        0.0207
      9 C          63.9754   83.2224   13.9632 C.ar    1  UNL1        0.0989
     10 N          63.8207   81.7788   13.5862 N.ar    1  UNL1       -0.2423
     11 C          63.1978   81.4093   12.2726 C.ar    1  UNL1        0.0989
     12 C          62.7297   82.4834   11.3360 C.ar    1  UNL1        0.0207
     13 C          60.4912   88.4690   10.9108 C.2     1  UNL1       -0.0252
     14 C          59.3176   88.2848   11.8266 C.2     1  UNL1       -0.0303
     15 C          58.5891   89.4817   12.3621 C.3     1  UNL1        0.0257
     16 C          59.0342   90.8627   11.9817 C.3     1  UNL1        0.0050
     17 C          60.2078   91.0469   11.0659 C.3     1  UNL1        0.0050
     18 C          60.9363   89.8499   10.5305 C.3     1  UNL1        0.0261
     19 C          59.5663   88.2980    7.5736 C.2     1  UNL1        0.2837
     20 O          58.5887   87.2985    8.1173 O.2     1  UNL1       -0.2665
     21 N          61.0120   88.2233    7.9666 N.am    1  UNL1       -0.2779
     22 H          61.6536   88.8793    7.6097 H       1  UNL1        0.1553
     23 C          59.0902   91.2031    5.0441 C.ar    1  UNL1        0.1469
     24 C          57.6651   90.8465    5.3474 C.ar    1  UNL1        0.1282
     25 N          57.6700   89.7148    6.3319 N.ar    1  UNL1       -0.2205
     26 C          59.0981   89.3720    6.6370 C.ar    1  UNL1        0.1958
     27 N          59.9758   90.2918    5.8412 N.ar    1  UNL1       -0.3257
     28 H          60.9603   90.2966    5.8418 H       1  UNL1        0.1682
     29 N          60.0080   93.3603    3.1721 N.1     1  UNL1       -0.1893
     30 C          59.5491   92.2817    4.1081 C.1     1  UNL1        0.1194
@<TRIPOS>BOND
     1    29    30    3
     2    30    23    1
     3    23    24   ar
     4    24    25   ar
     5    25    26   ar
     6    26    19    1
     7    19    20    2
     8    19    21   am
     9    21     1    1
    10     1     2   ar
    11     2     3   ar
    12     3     4   ar
    13     4     7    1
    14     7     8   ar
    15     8     9   ar
    16     9    10   ar
    17    10    11   ar
    18    11    12   ar
    19     4     5   ar
    20     5     6   ar
    21     6    13    1
    22    13    14    2
    23    14    15    1
    24    15    16    1
    25    16    17    1
    26    17    18    1
    27    26    27   ar
    28    27    23   ar
    29     6     1   ar
    30    18    13    1
    31    12     7   ar
    32    21    22    1
    33    27    28    1
@<TRIPOS>MOLECULE
*****
 30 33 0 0 0
SMALL
GASTEIGER

@<TRIPOS>ATOM
      1 C          63.1287   89.7551   12.2680 C.ar    1  UNL1        0.0503
      2 C          62.5004   90.6675   11.2568 C.ar    1  UNL1        0.0147
      3 C          61.6724   90.0968   10.1439 C.ar    1  UNL1        0.0013
      4 C          61.4726   88.6136   10.0422 C.ar    1  UNL1        0.0002
      5 C          62.1009   87.7012   11.0535 C.ar    1  UNL1        0.0009
      6 C          62.9289   88.2719   12.1664 C.ar    1  UNL1        0.0092
      7 C          60.6445   88.0429    8.9292 C.ar    1  UNL1        0.0031
      8 C          60.6787   86.5699    8.6483 C.ar    1  UNL1        0.0207
      9 C          59.8506   85.9992    7.5353 C.ar    1  UNL1        0.0989
     10 N          58.9884   86.9016    6.7033 N.ar    1  UNL1       -0.2423
     11 C          58.9543   88.3747    6.9843 C.ar    1  UNL1        0.0989
     12 C          59.7823   88.9453    8.0972 C.ar    1  UNL1        0.0207
     13 C          63.5573   87.3595   13.1777 C.2     1  UNL1       -0.0252
     14 C          64.2592   87.9340   14.3723 C.2     1  UNL1       -0.0303
     15 C          64.8876   87.0217   15.3836 C.3     1  UNL1        0.0257
     16 C          64.8139   85.5347   15.2003 C.3     1  UNL1        0.0050
     17 C          64.1120   84.9601   14.0057 C.3     1  UNL1        0.0050
     18 C          63.4836   85.8726   12.9943 C.3     1  UNL1        0.0261
     19 C          64.9139   91.4471   13.1046 C.2     1  UNL1        0.2837
     20 O          65.0431   91.9978   11.7153 O.2     1  UNL1       -0.2665
     21 N          63.9568   90.3258   13.3810 N.am    1  UNL1       -0.2779
     22 H          63.8720   89.9644   14.2928 H       1  UNL1        0.1553
     23 C          67.5553   93.0716   15.4390 C.ar    1  UNL1        0.1469
     24 C          66.4772   92.7206   16.4212 C.ar    1  UNL1        0.1282
     25 N          65.3566   92.0694   15.6662 N.ar    1  UNL1       -0.2205
     26 C          65.7420   92.0179   14.2175 C.ar    1  UNL1        0.1958
     27 N          67.1009   92.6373   14.0771 N.ar    1  UNL1       -0.3257
     28 H          67.6059   92.7406   13.2383 H       1  UNL1        0.1682
     29 N          70.1625   94.4077   16.0851 N.1     1  UNL1       -0.1893
     30 C          68.8589   93.7396   15.7620 C.1     1  UNL1        0.1194
@<TRIPOS>BOND
     1    29    30    3
     2    30    23    1
     3    23    24   ar
     4    24    25   ar
     5    25    26   ar
     6    26    19    1
     7    19    20    2
     8    19    21   am
     9    21     1    1
    10     1     2   ar
    11     2     3   ar
    12     3     4   ar
    13     4     7    1
    14     7     8   ar
    15     8     9   ar
    16     9    10   ar
    17    10    11   ar
    18    11    12   ar
    19     4     5   ar
    20     5     6   ar
    21     6    13    1
    22    13    14    2
    23    14    15    1
    24    15    16    1
    25    16    17    1
    26    17    18    1
    27    26    27   ar
    28    27    23   ar
    29     6     1   ar
    30    18    13    1
    31    12     7   ar
    32    21    22    1
    33    27    28    1
@<TRIPOS>MOLECULE
*****
 30 33 0 0 0
SMALL
GASTEIGER

@<TRIPOS>ATOM
      1 C          61.3164   87.5046    9.6081 C.ar    1  UNL1        0.0503
      2 C          60.8505   86.0940    9.4012 C.ar    1  UNL1        0.0147
      3 C          61.3296   85.0045   10.3141 C.ar    1  UNL1        0.0013
      4 C          62.2746   85.3256   11.4338 C.ar    1  UNL1        0.0002
      5 C          62.7405   86.7363   11.6407 C.ar    1  UNL1        0.0009
      6 C          62.2615   87.8258   10.7278 C.ar    1  UNL1        0.0092
      7 C          62.7537   84.2360   12.3467 C.ar    1  UNL1        0.0031
      8 C          62.6928   82.8046   11.9026 C.ar    1  UNL1        0.0207
      9 C          63.1718   81.7150   12.8155 C.ar    1  UNL1        0.0989
     10 N          63.7118   82.0569   14.1725 N.ar    1  UNL1       -0.2423
     11 C          63.7727   83.4884   14.6166 C.ar    1  UNL1        0.0989
     12 C          63.2937   84.5779   13.7038 C.ar    1  UNL1        0.0207
     13 C          62.7274   89.2366   10.9346 C.2     1  UNL1       -0.0252
     14 C          63.1856   89.6838   12.2911 C.2     1  UNL1       -0.0303
     15 C          63.6515   91.0945   12.4979 C.3     1  UNL1        0.0257
     16 C          63.6592   92.0581   11.3483 C.3     1  UNL1        0.0050
     17 C          63.2010   91.6108    9.9918 C.3     1  UNL1        0.0050
     18 C          62.7351   90.2001    9.7850 C.3     1  UNL1        0.0261
     19 C          59.7585   88.3119    7.6919 C.2     1  UNL1        0.2837
     20 O          59.1588   86.9399    7.6017 O.2     1  UNL1       -0.2665
     21 N          60.8374   88.5943    8.6951 N.am    1  UNL1       -0.2779
     22 H          61.2310   89.4947    8.7544 H       1  UNL1        0.1553
     23 C          59.2521   91.2381    5.1928 C.ar    1  UNL1        0.1469
     24 C          57.8323   90.9180    5.5558 C.ar    1  UNL1        0.1282
     25 N          57.8492   89.7829    6.5362 N.ar    1  UNL1       -0.2205
     26 C          59.2795   89.4014    6.7791 C.ar    1  UNL1        0.1958
     27 N          60.1465   90.3008    5.9488 N.ar    1  UNL1       -0.3257
     28 H          61.1299   90.2796    5.9073 H       1  UNL1        0.1682
     29 N          60.1460   93.3773    3.2889 N.1     1  UNL1       -0.1893
     30 C          59.6991   92.3077    4.2408 C.1     1  UNL1        0.1194
@<TRIPOS>BOND
     1    29    30    3
     2    30    23    1
     3    23    24   ar
     4    24    25   ar
     5    25    26   ar
     6    26    19    1
     7    19    20    2
     8    19    21   am
     9    21     1    1
    10     1     2   ar
    11     2     3   ar
    12     3     4   ar
    13     4     7    1
    14     7     8   ar
    15     8     9   ar
    16     9    10   ar
    17    10    11   ar
    18    11    12   ar
    19     4     5   ar
    20     5     6   ar
    21     6    13    1
    22    13    14    2
    23    14    15    1
    24    15    16    1
    25    16    17    1
    26    17    18    1
    27    26    27   ar
    28    27    23   ar
    29     6     1   ar
    30    18    13    1
    31    12     7   ar
    32    21    22    1
    33    27    28    1
@<TRIPOS>MOLECULE
*****
 30 33 0 0 0
SMALL
GASTEIGER

@<TRIPOS>ATOM
      1 C          61.7079   93.2576   -0.5483 C.ar    1  UNL1        0.0503
      2 C          63.2050   93.3501   -0.5463 C.ar    1  UNL1        0.0147
      3 C          63.9164   94.0227   -1.6827 C.ar    1  UNL1        0.0013
      4 C          63.1306   94.6029   -2.8211 C.ar    1  UNL1        0.0002
      5 C          61.6335   94.5104   -2.8232 C.ar    1  UNL1        0.0009
      6 C          60.9222   93.8377   -1.6868 C.ar    1  UNL1        0.0092
      7 C          63.8421   95.2756   -3.9575 C.ar    1  UNL1        0.0031
      8 C          63.3215   95.1342   -5.3571 C.ar    1  UNL1        0.0207
      9 C          64.0330   95.8069   -6.4936 C.ar    1  UNL1        0.0989
     10 N          65.2650   96.6210   -6.2303 N.ar    1  UNL1       -0.2423
     11 C          65.7856   96.7624   -4.8306 C.ar    1  UNL1        0.0989
     12 C          65.0741   96.0897   -3.6943 C.ar    1  UNL1        0.0207
     13 C          59.4250   93.7452   -1.6888 C.2     1  UNL1       -0.0252
     14 C          58.7422   92.6507   -2.4542 C.2     1  UNL1       -0.0303
     15 C          57.2451   92.5581   -2.4562 C.3     1  UNL1        0.0257
     16 C          56.4307   93.5601   -1.6928 C.3     1  UNL1        0.0050
     17 C          57.1134   94.6547   -0.9274 C.3     1  UNL1        0.0050
     18 C          58.6106   94.7472   -0.9254 C.3     1  UNL1        0.0261
     19 C          60.8318   93.2983    1.8973 C.2     1  UNL1        0.2837
     20 O          61.3787   94.6843    2.0700 O.2     1  UNL1       -0.2665
     21 N          60.9964   92.5849    0.5881 N.am    1  UNL1       -0.2779
     22 H          60.6375   91.6752    0.4747 H       1  UNL1        0.1553
     23 C          58.3702   91.6922    4.4322 C.ar    1  UNL1        0.1469
     24 C          59.6811   91.4890    5.1326 C.ar    1  UNL1        0.1282
     25 N          60.7627   92.0659    4.2682 N.ar    1  UNL1       -0.2205
     26 C          60.1204   92.6256    3.0337 C.ar    1  UNL1        0.1958
     27 N          58.6418   92.3947    3.1350 N.ar    1  UNL1       -0.3257
     28 H          57.9679   92.6579    2.4674 H       1  UNL1        0.1682
     29 N          55.6781   90.8427    5.4476 N.1     1  UNL1       -0.1893
     30 C          57.0242   91.2674    4.9399 C.1     1  UNL1        0.1194
@<TRIPOS>BOND
     1    29    30    3
     2    30    23    1
     3    23    24   ar
     4    24    25   ar
     5    25    26   ar
     6    26    19    1
     7    19    20    2
     8    19    21   am
     9    21     1    1
    10     1     2   ar
    11     2     3   ar
    12     3     4   ar
    13     4     7    1
    14     7     8   ar
    15     8     9   ar
    16     9    10   ar
    17    10    11   ar
    18    11    12   ar
    19     4     5   ar
    20     5     6   ar
    21     6    13    1
    22    13    14    2
    23    14    15    1
    24    15    16    1
    25    16    17    1
    26    17    18    1
    27    26    27   ar
    28    27    23   ar
    29     6     1   ar
    30    18    13    1
    31    12     7   ar
    32    21    22    1
    33    27    28    1
