@<TRIPOS>MOLECULE
*****
 33 36 0 0 0
SMALL
GASTEIGER

@<TRIPOS>ATOM
      1 N          62.1375   86.4434   11.7009 N.pl3   1  UNL1       -0.2872
      2 C          62.5423   82.2112   13.1757 C.ar    1  UNL1        0.0715
      3 C          62.7746   82.5264   11.7277 C.ar    1  UNL1        0.0051
      4 C          62.6397   83.9371   11.2361 C.ar    1  UNL1        0.0148
      5 C          62.2724   85.0327   12.1925 C.ar    1  UNL1        0.0515
      6 C          62.0401   84.7176   13.6405 C.ar    1  UNL1        0.0148
      7 C          62.1751   83.3068   14.1321 C.ar    1  UNL1        0.0051
      8 F          62.8122   79.3898   14.1588 F       1  UNL1       -0.1659
      9 C          62.6773   80.8005   13.6673 C.3     1  UNL1        0.4186
     10 F          61.1935   80.7315   13.8764 F       1  UNL1       -0.1659
     11 F          64.1610   80.8696   13.4581 F       1  UNL1       -0.1659
     12 C          61.1558   86.7683   10.6144 C.ar    1  UNL1        0.0710
     13 C          61.2107   86.0314    9.3090 C.ar    1  UNL1        0.0180
     14 C          60.2289   86.3564    8.2224 C.ar    1  UNL1        0.0220
     15 C          59.1923   87.4182    8.4412 C.ar    1  UNL1        0.0990
     16 N          59.1375   88.1552    9.7465 N.ar    1  UNL1       -0.2410
     17 C          60.1192   87.8303   10.8331 C.ar    1  UNL1        0.1136
     18 C          62.9842   87.5292   12.2959 C.3     1  UNL1        0.0807
     19 C          63.7938   87.2581   13.5293 C.3     1  UNL1        0.0416
     20 C          64.6406   88.3439   14.1243 C.3     1  UNL1        0.0939
     21 N          64.6778   89.7008   13.4859 N.pl3   1  UNL1       -0.2931
     22 C          63.8682   89.9719   12.2526 C.3     1  UNL1        0.0939
     23 C          63.0214   88.8861   11.6575 C.3     1  UNL1        0.0416
     24 C          65.5246   90.7866   14.0809 C.ar    1  UNL1        0.1317
     25 C          65.1354   91.4095   15.3888 C.ar    1  UNL1        0.0343
     26 C          65.9822   92.4953   15.9837 C.ar    1  UNL1        0.0083
     27 C          67.2181   92.9581   15.2709 C.ar    1  UNL1        0.0906
     28 C          67.6073   92.3352   13.9631 C.ar    1  UNL1        0.1041
     29 N          66.7605   91.2494   13.3681 N.ar    1  UNL1       -0.2292
     30 C          68.0649   94.0440   15.8659 C.3     1  UNL1        0.4200
     31 F          68.9117   95.1297   16.4610 F       1  UNL1       -0.1658
     32 F          67.4348   95.0424   14.9408 F       1  UNL1       -0.1658
     33 F          68.6950   93.0455   16.7911 F       1  UNL1       -0.1658
@<TRIPOS>BOND
     1     8     9    1
     2     9    10    1
     3     9    11    1
     4     9     2    1
     5     2     3   ar
     6     3     4   ar
     7     4     5   ar
     8     5     1    1
     9     1    12    1
    10    12    13   ar
    11    13    14   ar
    12    14    15   ar
    13    15    16   ar
    14    16    17   ar
    15     1    18    1
    16    18    19    1
    17    19    20    1
    18    20    21    1
    19    21    24    1
    20    24    25   ar
    21    25    26   ar
    22    26    27   ar
    23    27    30    1
    24    30    31    1
    25    30    32    1
    26    30    33    1
    27    27    28   ar
    28    28    29   ar
    29    21    22    1
    30    22    23    1
    31     5     6   ar
    32     6     7   ar
    33     7     2   ar
    34    17    12   ar
    35    23    18    1
    36    29    24   ar
@<TRIPOS>MOLECULE
*****
 33 36 0 0 0
SMALL
GASTEIGER

@<TRIPOS>ATOM
      1 N          64.8786   90.7134   13.8253 N.pl3   1  UNL1       -0.2872
      2 C          66.6123   92.7947   10.2319 C.ar    1  UNL1        0.0715
      3 C          65.1331   92.5632   10.3234 C.ar    1  UNL1        0.0051
      4 C          64.5552   91.8695   11.5212 C.ar    1  UNL1        0.0148
      5 C          65.4565   91.4072   12.6275 C.ar    1  UNL1        0.0515
      6 C          66.9357   91.6387   12.5360 C.ar    1  UNL1        0.0148
      7 C          67.5136   92.3325   11.3382 C.ar    1  UNL1        0.0051
      8 F          67.7681   94.1822    7.8362 F       1  UNL1       -0.1659
      9 C          67.1902   93.4885    9.0341 C.3     1  UNL1        0.4186
     10 F          68.0929   92.3156    8.7902 F       1  UNL1       -0.1659
     11 F          66.2875   94.6614    9.2779 F       1  UNL1       -0.1659
     12 C          64.7150   91.4583   15.1169 C.ar    1  UNL1        0.0710
     13 C          65.8711   92.2186   15.6960 C.ar    1  UNL1        0.0180
     14 C          65.7074   92.9634   16.9877 C.ar    1  UNL1        0.0220
     15 C          64.3876   92.9479   17.7003 C.ar    1  UNL1        0.0990
     16 N          63.2315   92.1876   17.1213 N.ar    1  UNL1       -0.2410
     17 C          63.3951   91.4428   15.8296 C.ar    1  UNL1        0.1136
     18 C          64.4644   89.2749   13.7314 C.3     1  UNL1        0.0807
     19 C          63.6160   88.8120   12.5842 C.3     1  UNL1        0.0416
     20 C          63.2018   87.3734   12.4904 C.3     1  UNL1        0.0939
     21 N          63.6359   86.3976   13.5437 N.pl3   1  UNL1       -0.2931
     22 C          64.4842   86.8605   14.6909 C.3     1  UNL1        0.0939
     23 C          64.8985   88.2991   14.7848 C.3     1  UNL1        0.0416
     24 C          63.2216   84.9590   13.4498 C.ar    1  UNL1        0.1317
     25 C          63.2383   84.2587   12.1234 C.ar    1  UNL1        0.0343
     26 C          62.8240   82.8202   12.0296 C.ar    1  UNL1        0.0083
     27 C          62.3931   82.0819   13.2621 C.ar    1  UNL1        0.0906
     28 C          62.3763   82.7821   14.5885 C.ar    1  UNL1        0.1041
     29 N          62.7906   84.2207   14.6823 N.ar    1  UNL1       -0.2292
     30 C          61.9788   80.6432   13.1682 C.3     1  UNL1        0.4200
     31 F          61.5645   79.2046   13.0744 F       1  UNL1       -0.1658
     32 F          62.8621   80.4671   11.9688 F       1  UNL1       -0.1658
     33 F          61.0955   80.8193   14.3677 F       1  UNL1       -0.1658
@<TRIPOS>BOND
     1     8     9    1
     2     9    10    1
     3     9    11    1
     4     9     2    1
     5     2     3   ar
     6     3     4   ar
     7     4     5   ar
     8     5     1    1
     9     1    12    1
    10    12    13   ar
    11    13    14   ar
    12    14    15   ar
    13    15    16   ar
    14    16    17   ar
    15     1    18    1
    16    18    19    1
    17    19    20    1
    18    20    21    1
    19    21    24    1
    20    24    25   ar
    21    25    26   ar
    22    26    27   ar
    23    27    30    1
    24    30    31    1
    25    30    32    1
    26    30    33    1
    27    27    28   ar
    28    28    29   ar
    29    21    22    1
    30    22    23    1
    31     5     6   ar
    32     6     7   ar
    33     7     2   ar
    34    17    12   ar
    35    23    18    1
    36    29    24   ar
@<TRIPOS>MOLECULE
*****
 33 36 0 0 0
SMALL
GASTEIGER

@<TRIPOS>ATOM
      1 N          62.5161   84.3007   12.2623 N.pl3   1  UNL1       -0.2872
      2 C          62.8843   79.9485   11.1793 C.ar    1  UNL1        0.0715
      3 C          63.3229   81.0030   10.2070 C.ar    1  UNL1        0.0051
      4 C          63.2002   82.4538   10.5679 C.ar    1  UNL1        0.0148
      5 C          62.6388   82.8500   11.9013 C.ar    1  UNL1        0.0515
      6 C          62.2002   81.7954   12.8736 C.ar    1  UNL1        0.0148
      7 C          62.3229   80.3447   12.5127 C.ar    1  UNL1        0.0051
      8 F          63.1297   77.0470   10.4573 F       1  UNL1       -0.1659
      9 C          63.0070   78.4978   10.8183 C.3     1  UNL1        0.4186
     10 F          63.3017   78.8763    9.3971 F       1  UNL1       -0.1659
     11 F          62.7122   78.1192   12.2395 F       1  UNL1       -0.1659
     12 C          62.9683   84.7791   13.6101 C.ar    1  UNL1        0.0710
     13 C          64.2736   85.5050   13.7492 C.ar    1  UNL1        0.0180
     14 C          64.7258   85.9833   15.0971 C.ar    1  UNL1        0.0220
     15 C          63.8727   85.7357   16.3058 C.ar    1  UNL1        0.0990
     16 N          62.5675   85.0098   16.1667 N.ar    1  UNL1       -0.2410
     17 C          62.1153   84.5315   14.8189 C.ar    1  UNL1        0.1136
     18 C          61.9412   85.2731   11.2754 C.3     1  UNL1        0.0807
     19 C          61.1874   86.4761   11.7600 C.3     1  UNL1        0.0416
     20 C          60.6125   87.4485   10.7731 C.3     1  UNL1        0.0939
     21 N          60.7913   87.2180    9.3018 N.pl3   1  UNL1       -0.2931
     22 C          61.5450   86.0150    8.8172 C.3     1  UNL1        0.0939
     23 C          62.1200   85.0426    9.8041 C.3     1  UNL1        0.0416
     24 C          60.2163   88.1904    8.3149 C.ar    1  UNL1        0.1317
     25 C          59.1780   87.7363    7.3323 C.ar    1  UNL1        0.0343
     26 C          58.6031   88.7087    6.3456 C.ar    1  UNL1        0.0083
     27 C          59.0665   90.1353    6.3414 C.ar    1  UNL1        0.0906
     28 C          60.1048   90.5895    7.3240 C.ar    1  UNL1        0.1041
     29 N          60.6798   89.6170    8.3108 N.ar    1  UNL1       -0.2292
     30 C          58.4915   91.1078    5.3546 C.3     1  UNL1        0.4200
     31 F          57.9166   92.0803    4.3678 F       1  UNL1       -0.1658
     32 F          57.1148   90.5876    5.6440 F       1  UNL1       -0.1658
     33 F          59.8683   91.6281    5.0652 F       1  UNL1       -0.1658
@<TRIPOS>BOND
     1     8     9    1
     2     9    10    1
     3     9    11    1
     4     9     2    1
     5     2     3   ar
     6     3     4   ar
     7     4     5   ar
     8     5     1    1
     9     1    12    1
    10    12    13   ar
    11    13    14   ar
    12    14    15   ar
    13    15    16   ar
    14    16    17   ar
    15     1    18    1
    16    18    19    1
    17    19    20    1
    18    20    21    1
    19    21    24    1
    20    24    25   ar
    21    25    26   ar
    22    26    27   ar
    23    27    30    1
    24    30    31    1
    25    30    32    1
    26    30    33    1
    27    27    28   ar
    28    28    29   ar
    29    21    22    1
    30    22    23    1
    31     5     6   ar
    32     6     7   ar
    33     7     2   ar
    34    17    12   ar
    35    23    18    1
    36    29    24   ar
@<TRIPOS>MOLECULE
*****
 33 36 0 0 0
SMALL
GASTEIGER

@<TRIPOS>ATOM
      1 N          62.4707   88.9442   12.3887 N.pl3   1  UNL1       -0.2872
      2 C          65.9994   91.1640   14.0831 C.ar    1  UNL1        0.0715
      3 C          65.4036   91.5898   12.7740 C.ar    1  UNL1        0.0051
      4 C          64.2274   90.8499   12.2092 C.ar    1  UNL1        0.0148
      5 C          63.6469   89.6841   12.9535 C.ar    1  UNL1        0.0515
      6 C          64.2427   89.2583   14.2626 C.ar    1  UNL1        0.0148
      7 C          65.4189   89.9983   14.8274 C.ar    1  UNL1        0.0051
      8 F          68.3518   92.6439   15.2127 F       1  UNL1       -0.1659
      9 C          67.1756   91.9040   14.6479 C.3     1  UNL1        0.4186
     10 F          67.9674   91.5871   13.4140 F       1  UNL1       -0.1659
     11 F          66.3837   92.2208   15.8818 F       1  UNL1       -0.1659
     12 C          61.2067   89.6826   12.0618 C.ar    1  UNL1        0.0710
     13 C          59.9304   89.3345   12.7689 C.ar    1  UNL1        0.0180
     14 C          58.6664   90.0730   12.4419 C.ar    1  UNL1        0.0220
     15 C          58.6786   91.1596   11.4079 C.ar    1  UNL1        0.0990
     16 N          59.9549   91.5077   10.7008 N.ar    1  UNL1       -0.2410
     17 C          61.2189   90.7692   11.0277 C.ar    1  UNL1        0.1136
     18 C          62.5585   87.4658   12.1508 C.3     1  UNL1        0.0807
     19 C          63.3016   86.5932   13.1186 C.3     1  UNL1        0.0416
     20 C          63.3894   85.1148   12.8808 C.3     1  UNL1        0.0939
     21 N          62.7342   84.5090   11.6751 N.pl3   1  UNL1       -0.2931
     22 C          61.9911   85.3814   10.7073 C.3     1  UNL1        0.0939
     23 C          61.9033   86.8599   10.9452 C.3     1  UNL1        0.0416
     24 C          62.8220   83.0305   11.4373 C.ar    1  UNL1        0.1317
     25 C          63.3757   82.5105   10.1438 C.ar    1  UNL1        0.0343
     26 C          63.4635   81.0321    9.9061 C.ar    1  UNL1        0.0083
     27 C          62.9976   80.0737   10.9617 C.ar    1  UNL1        0.0906
     28 C          62.4439   80.5937   12.2551 C.ar    1  UNL1        0.1041
     29 N          62.3561   82.0721   12.4929 N.ar    1  UNL1       -0.2292
     30 C          63.0854   78.5952   10.7239 C.3     1  UNL1        0.4200
     31 F          63.1733   77.1168   10.4860 F       1  UNL1       -0.1658
     32 F          62.7382   78.3433   12.1612 F       1  UNL1       -0.1658
     33 F          63.4326   78.8471    9.2865 F       1  UNL1       -0.1658
@<TRIPOS>BOND
     1     8     9    1
     2     9    10    1
     3     9    11    1
     4     9     2    1
     5     2     3   ar
     6     3     4   ar
     7     4     5   ar
     8     5     1    1
     9     1    12    1
    10    12    13   ar
    11    13    14   ar
    12    14    15   ar
    13    15    16   ar
    14    16    17   ar
    15     1    18    1
    16    18    19    1
    17    19    20    1
    18    20    21    1
    19    21    24    1
    20    24    25   ar
    21    25    26   ar
    22    26    27   ar
    23    27    30    1
    24    30    31    1
    25    30    32    1
    26    30    33    1
    27    27    28   ar
    28    28    29   ar
    29    21    22    1
    30    22    23    1
    31     5     6   ar
    32     6     7   ar
    33     7     2   ar
    34    17    12   ar
    35    23    18    1
    36    29    24   ar
