@<TRIPOS>MOLECULE
*****
 32 37 0 0 0
SMALL
GASTEIGER

@<TRIPOS>ATOM
      1 C          62.0149   85.8380   10.3030 C.2     1  UNL1        0.0292
      2 C          62.4522   84.4931    9.8029 C.2     1  UNL1        0.2320
      3 N          63.3525   83.6369   10.6432 N.2     1  UNL1       -0.0311
      4 C          63.8155   84.1255   11.9837 C.2     1  UNL1        0.3720
      5 N          64.6993   83.5079   13.0266 N.2     1  UNL1       -0.0308
      6 C          64.8082   84.4711   14.1713 C.2     1  UNL1        0.2355
      7 C          63.9918   85.6839   13.8358 C.2     1  UNL1        0.0469
      8 C          63.3783   85.4703   12.4838 C.2     1  UNL1        0.0740
      9 C          62.4780   86.3266   11.6435 C.3     1  UNL1        0.0645
     10 C          63.8192   86.8974   14.7005 C.2     1  UNL1       -0.0140
     11 C          63.2132   86.7651   16.0663 C.2     1  UNL1       -0.0023
     12 C          63.0406   87.9786   16.9310 C.2     1  UNL1        0.0185
     13 C          63.4739   89.3244   16.4300 C.2     1  UNL1        0.0777
     14 N          63.4298   90.6887   17.0517 N.2     1  UNL1       -0.2442
     15 C          64.0086   91.6642   16.0702 C.2     1  UNL1        0.0985
     16 C          64.4103   90.9028   14.8419 C.2     1  UNL1        0.0182
     17 C          64.0799   89.4566   15.0642 C.2     1  UNL1        0.0014
     18 C          64.2525   88.2432   14.1995 C.3     1  UNL1        0.0543
     19 C          59.3139   88.4069    7.7820 C.ar    1  UNL1       -0.0061
     20 C          59.4245   86.9369    7.5044 C.ar    1  UNL1       -0.0029
     21 C          60.3248   86.0807    8.3447 C.ar    1  UNL1       -0.0005
     22 C          61.1146   86.6943    9.4626 C.ar    1  UNL1        0.0000
     23 C          61.0040   88.1642    9.7402 C.ar    1  UNL1       -0.0005
     24 C          60.1037   89.0206    8.8999 C.ar    1  UNL1       -0.0029
     25 C          58.4136   89.2632    6.9416 C.3     1  UNL1        0.0992
     26 C          60.7642   93.0235    2.9001 C.3     1  UNL1        0.0897
     27 N          60.1766   92.0835    3.9105 N.3     1  UNL1       -0.2691
     28 C          61.0522   91.0781    4.5977 C.3     1  UNL1        0.0897
     29 C          60.4646   90.1379    5.6082 C.3     1  UNL1        0.0899
     30 N          59.0013   90.2032    5.9313 N.3     1  UNL1       -0.2665
     31 C          58.1256   91.2087    5.2439 C.3     1  UNL1        0.0899
     32 C          58.7132   92.1488    4.2336 C.3     1  UNL1        0.0897
@<TRIPOS>BOND
     1    26    27    1
     2    27    28    1
     3    28    29    1
     4    29    30    1
     5    30    25    1
     6    25    19    1
     7    19    20   ar
     8    20    21   ar
     9    21    22   ar
    10    22     1    1
    11     1     2    2
    12     2     3    1
    13     3     4    2
    14     4     5    1
    15     5     6    2
    16     6     7    1
    17     7    10    1
    18    10    11    2
    19    11    12    1
    20    12    13    2
    21    13    14    1
    22    14    15    2
    23    15    16    1
    24    16    17    2
    25    17    18    1
    26     7     8    2
    27     8     9    1
    28    22    23   ar
    29    23    24   ar
    30    30    31    1
    31    31    32    1
    32    32    27    1
    33    24    19   ar
    34     9     1    1
    35     8     4    1
    36    18    10    1
    37    17    13    1
@<TRIPOS>MOLECULE
*****
 32 37 0 0 0
SMALL
GASTEIGER

@<TRIPOS>ATOM
      1 C          62.3112   87.6718   11.5072 C.2     1  UNL1        0.0292
      2 C          62.9309   88.8017   12.2748 C.2     1  UNL1        0.2320
      3 N          63.8182   88.5129   13.4491 N.2     1  UNL1       -0.0311
      4 C          64.0860   87.0941   13.8559 C.2     1  UNL1        0.3720
      5 N          64.9118   86.5057   14.9613 N.2     1  UNL1       -0.0308
      6 C          64.8025   85.0121   14.8768 C.2     1  UNL1        0.2355
      7 C          63.9091   84.6774   13.7192 C.2     1  UNL1        0.0469
      8 C          63.4663   85.9642   13.0883 C.2     1  UNL1        0.0740
      9 C          62.5790   86.2530   11.9139 C.3     1  UNL1        0.0645
     10 C          63.5259   83.2982   13.2713 C.2     1  UNL1       -0.0140
     11 C          62.9947   82.3075   14.2644 C.2     1  UNL1       -0.0023
     12 C          62.6115   80.9282   13.8164 C.2     1  UNL1        0.0185
     13 C          62.7594   80.5396   12.3752 C.2     1  UNL1        0.0777
     14 N          62.4660   79.2627   11.6448 N.2     1  UNL1       -0.2442
     15 C          62.8159   79.4642   10.2002 C.2     1  UNL1        0.0985
     16 C          63.3255   80.8656   10.0378 C.2     1  UNL1        0.0182
     17 C          63.2905   81.5302   11.3821 C.2     1  UNL1        0.0014
     18 C          63.6738   82.9095   11.8300 C.3     1  UNL1        0.0543
     19 C          59.6490   88.5382    7.9841 C.ar    1  UNL1       -0.0061
     20 C          60.0782   89.6526    8.8919 C.ar    1  UNL1       -0.0029
     21 C          60.9656   89.3638   10.0662 C.ar    1  UNL1       -0.0005
     22 C          61.4238   87.9606   10.3328 C.ar    1  UNL1        0.0000
     23 C          60.9946   86.8462    9.4251 C.ar    1  UNL1       -0.0005
     24 C          60.1072   87.1351    8.2507 C.ar    1  UNL1       -0.0029
     25 C          58.7616   88.8271    6.8098 C.3     1  UNL1        0.0992
     26 C          60.0195   93.4175    3.1566 C.3     1  UNL1        0.0897
     27 N          59.7050   92.2699    4.0699 N.3     1  UNL1       -0.2691
     28 C          60.8076   91.3819    4.5654 C.3     1  UNL1        0.0897
     29 C          60.4932   90.2342    5.4788 C.3     1  UNL1        0.0899
     30 N          59.0761   89.9747    5.8965 N.3     1  UNL1       -0.2665
     31 C          57.9734   90.8627    5.4008 C.3     1  UNL1        0.0899
     32 C          58.2879   92.0103    4.4876 C.3     1  UNL1        0.0897
@<TRIPOS>BOND
     1    26    27    1
     2    27    28    1
     3    28    29    1
     4    29    30    1
     5    30    25    1
     6    25    19    1
     7    19    20   ar
     8    20    21   ar
     9    21    22   ar
    10    22     1    1
    11     1     2    2
    12     2     3    1
    13     3     4    2
    14     4     5    1
    15     5     6    2
    16     6     7    1
    17     7    10    1
    18    10    11    2
    19    11    12    1
    20    12    13    2
    21    13    14    1
    22    14    15    2
    23    15    16    1
    24    16    17    2
    25    17    18    1
    26     7     8    2
    27     8     9    1
    28    22    23   ar
    29    23    24   ar
    30    30    31    1
    31    31    32    1
    32    32    27    1
    33    24    19   ar
    34     9     1    1
    35     8     4    1
    36    18    10    1
    37    17    13    1
@<TRIPOS>MOLECULE
*****
 32 37 0 0 0
SMALL
GASTEIGER

@<TRIPOS>ATOM
      1 C          59.8188   89.1581    7.1634 C.2     1  UNL1        0.0292
      2 C          59.0581   87.8664    7.1091 C.2     1  UNL1        0.2320
      3 N          59.2148   86.8571    8.2076 N.2     1  UNL1       -0.0311
      4 C          60.1322   87.1393    9.3603 C.2     1  UNL1        0.3720
      5 N          60.4868   86.3409   10.5797 N.2     1  UNL1       -0.0308
      6 C          61.4667   87.1391   11.3875 C.2     1  UNL1        0.2355
      7 C          61.7177   88.4308   10.6675 C.2     1  UNL1        0.0469
      8 C          60.8929   88.4310    9.4146 C.2     1  UNL1        0.0740
      9 C          60.7362   89.4403    8.3161 C.3     1  UNL1        0.0645
     10 C          62.6328   89.5295   11.1207 C.2     1  UNL1       -0.0140
     11 C          62.9137   90.6926   10.2162 C.2     1  UNL1       -0.0023
     12 C          63.8288   91.7913   10.6694 C.2     1  UNL1        0.0185
     13 C          64.4630   91.7270   12.0272 C.2     1  UNL1        0.0777
     14 N          65.4004   92.6543   12.7421 N.2     1  UNL1       -0.2442
     15 C          65.6989   92.0644   14.0885 C.2     1  UNL1        0.0985
     16 C          64.9459   90.7724   14.2058 C.2     1  UNL1        0.0182
     17 C          64.1820   90.5639   12.9318 C.2     1  UNL1        0.0014
     18 C          63.2669   89.4652   12.4785 C.3     1  UNL1        0.0543
     19 C          59.3490   92.1863    3.8680 C.ar    1  UNL1       -0.0061
     20 C          60.7089   91.6519    4.2073 C.ar    1  UNL1       -0.0029
     21 C          60.8655   90.6425    5.3057 C.ar    1  UNL1       -0.0005
     22 C          59.6622   90.1675    6.0649 C.ar    1  UNL1        0.0000
     23 C          58.3023   90.7019    5.7258 C.ar    1  UNL1       -0.0005
     24 C          58.1457   91.7113    4.6273 C.ar    1  UNL1       -0.0029
     25 C          59.1924   93.1957    2.7696 C.3     1  UNL1        0.0992
     26 C          63.4437   93.7445   -1.4286 C.3     1  UNL1        0.0897
     27 N          62.3809   93.6073   -0.3790 N.3     1  UNL1       -0.2691
     28 C          61.2712   92.6146   -0.5607 C.3     1  UNL1        0.0897
     29 C          60.2083   92.4774    0.4889 C.3     1  UNL1        0.0899
     30 N          60.2552   93.3329    1.7201 N.3     1  UNL1       -0.2665
     31 C          61.3650   94.3256    1.9017 C.3     1  UNL1        0.0899
     32 C          62.4278   94.4628    0.8522 C.3     1  UNL1        0.0897
@<TRIPOS>BOND
     1    26    27    1
     2    27    28    1
     3    28    29    1
     4    29    30    1
     5    30    25    1
     6    25    19    1
     7    19    20   ar
     8    20    21   ar
     9    21    22   ar
    10    22     1    1
    11     1     2    2
    12     2     3    1
    13     3     4    2
    14     4     5    1
    15     5     6    2
    16     6     7    1
    17     7    10    1
    18    10    11    2
    19    11    12    1
    20    12    13    2
    21    13    14    1
    22    14    15    2
    23    15    16    1
    24    16    17    2
    25    17    18    1
    26     7     8    2
    27     8     9    1
    28    22    23   ar
    29    23    24   ar
    30    30    31    1
    31    31    32    1
    32    32    27    1
    33    24    19   ar
    34     9     1    1
    35     8     4    1
    36    18    10    1
    37    17    13    1
@<TRIPOS>MOLECULE
*****
 32 37 0 0 0
SMALL
GASTEIGER

@<TRIPOS>ATOM
      1 C          61.9599   89.4973   10.3143 C.2     1  UNL1        0.0292
      2 C          61.6872   88.2342   11.0759 C.2     1  UNL1        0.2320
      3 N          60.6781   87.2510   10.5611 N.2     1  UNL1       -0.0311
      4 C          59.9418   87.5309    9.2846 C.2     1  UNL1        0.3720
      5 N          58.8991   86.7544    8.5363 N.2     1  UNL1       -0.0308
      6 C          58.5274   87.5376    7.3123 C.2     1  UNL1        0.2355
      7 C          59.3404   88.7982    7.3040 C.2     1  UNL1        0.0469
      8 C          60.2145   88.7940    8.5229 C.2     1  UNL1        0.0740
      9 C          61.2235   89.7772    9.0378 C.3     1  UNL1        0.0645
     10 C          59.2884   89.8740    6.2600 C.2     1  UNL1       -0.0140
     11 C          57.9896   90.5586    5.9525 C.2     1  UNL1       -0.0023
     12 C          57.9376   91.6344    4.9086 C.2     1  UNL1        0.0185
     13 C          59.1844   92.0257    4.1721 C.2     1  UNL1        0.0777
     14 N          59.4391   93.0428    3.0995 N.2     1  UNL1       -0.2442
     15 C          60.8953   92.9869    2.7440 C.2     1  UNL1        0.0985
     16 C          61.5405   91.9352    3.5970 C.2     1  UNL1        0.0182
     17 C          60.4831   91.3412    4.4796 C.2     1  UNL1        0.0014
     18 C          60.5351   90.2653    5.5235 C.3     1  UNL1        0.0543
     19 C          64.9871   92.4470   11.8588 C.ar    1  UNL1       -0.0061
     20 C          64.4391   91.3884   12.7694 C.ar    1  UNL1       -0.0029
     21 C          63.4301   90.4052   12.2545 C.ar    1  UNL1       -0.0005
     22 C          62.9690   90.4806   10.8291 C.ar    1  UNL1        0.0000
     23 C          63.5169   91.5392    9.9186 C.ar    1  UNL1       -0.0005
     24 C          64.5260   92.5224   10.4335 C.ar    1  UNL1       -0.0029
     25 C          65.9961   93.4302   12.3737 C.3     1  UNL1        0.0992
     26 C          69.5388   91.9557   16.9862 C.3     1  UNL1        0.0897
     27 N          68.6532   92.3243   15.8331 N.3     1  UNL1       -0.2691
     28 C          69.0079   91.8832   14.4440 C.3     1  UNL1        0.0897
     29 C          68.1222   92.2518   13.2908 C.3     1  UNL1        0.0899
     30 N          66.8818   93.0616   13.5268 N.3     1  UNL1       -0.2665
     31 C          66.5271   93.5027   14.9159 C.3     1  UNL1        0.0899
     32 C          67.4127   93.1341   16.0690 C.3     1  UNL1        0.0897
@<TRIPOS>BOND
     1    26    27    1
     2    27    28    1
     3    28    29    1
     4    29    30    1
     5    30    25    1
     6    25    19    1
     7    19    20   ar
     8    20    21   ar
     9    21    22   ar
    10    22     1    1
    11     1     2    2
    12     2     3    1
    13     3     4    2
    14     4     5    1
    15     5     6    2
    16     6     7    1
    17     7    10    1
    18    10    11    2
    19    11    12    1
    20    12    13    2
    21    13    14    1
    22    14    15    2
    23    15    16    1
    24    16    17    2
    25    17    18    1
    26     7     8    2
    27     8     9    1
    28    22    23   ar
    29    23    24   ar
    30    30    31    1
    31    31    32    1
    32    32    27    1
    33    24    19   ar
    34     9     1    1
    35     8     4    1
    36    18    10    1
    37    17    13    1
@<TRIPOS>MOLECULE
*****
 32 37 0 0 0
SMALL
GASTEIGER

@<TRIPOS>ATOM
      1 C          62.2553   85.5223    9.5352 C.2     1  UNL1        0.0292
      2 C          62.7892   84.3862    8.7142 C.2     1  UNL1        0.2320
      3 N          63.7092   83.3784    9.3371 N.2     1  UNL1       -0.0311
      4 C          64.0953   83.5068   10.7809 C.2     1  UNL1        0.3720
      5 N          64.9775   82.6728   11.6619 N.2     1  UNL1       -0.0308
      6 C          64.9887   83.2935   13.0274 C.2     1  UNL1        0.2355
      7 C          64.1135   84.5112   12.9902 C.2     1  UNL1        0.0469
      8 C          63.5613   84.6430   11.6018 C.2     1  UNL1        0.0740
      9 C          62.6413   85.6507   10.9790 C.3     1  UNL1        0.0645
     10 C          63.8386   85.4348   14.1397 C.2     1  UNL1       -0.0140
     11 C          63.2951   84.8893   15.4269 C.2     1  UNL1       -0.0023
     12 C          63.0203   85.8130   16.5763 C.2     1  UNL1        0.0185
     13 C          63.2889   87.2823   16.4386 C.2     1  UNL1        0.0777
     14 N          63.1176   88.4276   17.3919 N.2     1  UNL1       -0.2442
     15 C          63.5552   89.6811   16.6939 C.2     1  UNL1        0.0985
     16 C          63.9970   89.3104   15.3092 C.2     1  UNL1        0.0182
     17 C          63.8324   87.8278   15.1514 C.2     1  UNL1        0.0014
     18 C          64.1073   86.9041   14.0020 C.3     1  UNL1        0.0543
     19 C          59.4951   88.5457    7.6667 C.ar    1  UNL1       -0.0061
     20 C          59.4782   87.1220    7.1945 C.ar    1  UNL1       -0.0029
     21 C          60.3982   86.1143    7.8173 C.ar    1  UNL1       -0.0005
     22 C          61.3352   86.5301    8.9124 C.ar    1  UNL1        0.0000
     23 C          61.3521   87.9537    9.3846 C.ar    1  UNL1       -0.0005
     24 C          60.4320   88.9616    8.7618 C.ar    1  UNL1       -0.0029
     25 C          58.5750   89.5535    7.0439 C.3     1  UNL1        0.0992
     26 C          60.5678   93.1243    2.6533 C.3     1  UNL1        0.0897
     27 N          60.0696   92.2316    3.7509 N.3     1  UNL1       -0.2691
     28 C          58.6176   92.2443    4.1271 C.3     1  UNL1        0.0897
     29 C          58.1194   91.3515    5.2248 C.3     1  UNL1        0.0899
     30 N          59.0732   90.4462    5.9463 N.3     1  UNL1       -0.2665
     31 C          60.5253   90.4335    5.5701 C.3     1  UNL1        0.0899
     32 C          61.0234   91.3262    4.4724 C.3     1  UNL1        0.0897
@<TRIPOS>BOND
     1    26    27    1
     2    27    28    1
     3    28    29    1
     4    29    30    1
     5    30    25    1
     6    25    19    1
     7    19    20   ar
     8    20    21   ar
     9    21    22   ar
    10    22     1    1
    11     1     2    2
    12     2     3    1
    13     3     4    2
    14     4     5    1
    15     5     6    2
    16     6     7    1
    17     7    10    1
    18    10    11    2
    19    11    12    1
    20    12    13    2
    21    13    14    1
    22    14    15    2
    23    15    16    1
    24    16    17    2
    25    17    18    1
    26     7     8    2
    27     8     9    1
    28    22    23   ar
    29    23    24   ar
    30    30    31    1
    31    31    32    1
    32    32    27    1
    33    24    19   ar
    34     9     1    1
    35     8     4    1
    36    18    10    1
    37    17    13    1
@<TRIPOS>MOLECULE
*****
 32 37 0 0 0
SMALL
GASTEIGER

@<TRIPOS>ATOM
      1 C          62.2064   89.9561   10.0103 C.2     1  UNL1        0.0292
      2 C          61.0446   90.5243    9.2506 C.2     1  UNL1        0.2320
      3 N          60.0538   89.6062    8.5985 N.2     1  UNL1       -0.0311
      4 C          60.2250   88.1198    8.7060 C.2     1  UNL1        0.3720
      5 N          59.4158   86.9751    8.1721 N.2     1  UNL1       -0.0308
      6 C          60.0776   85.6995    8.6019 C.2     1  UNL1        0.2355
      7 C          61.2958   86.0558    9.4013 C.2     1  UNL1        0.0469
      8 C          61.3868   87.5517    9.4657 C.2     1  UNL1        0.0740
      9 C          62.3776   88.4698   10.1178 C.3     1  UNL1        0.0645
     10 C          62.2546   85.0865   10.0267 C.2     1  UNL1       -0.0140
     11 C          63.2595   84.3699    9.1742 C.2     1  UNL1       -0.0023
     12 C          64.2183   83.4005    9.7996 C.2     1  UNL1        0.0185
     13 C          64.1723   83.1478   11.2774 C.2     1  UNL1        0.0777
     14 N          64.9840   82.2554   12.1688 N.2     1  UNL1       -0.2442
     15 C          64.4808   82.4205   13.5722 C.2     1  UNL1        0.0985
     16 C          63.3581   83.4149   13.5482 C.2     1  UNL1        0.0182
     17 C          63.1675   83.8645   12.1299 C.2     1  UNL1        0.0014
     18 C          62.2086   84.8338   11.5045 C.3     1  UNL1        0.0543
     19 C          65.1789   92.7106   11.9669 C.ar    1  UNL1       -0.0061
     20 C          64.8739   92.8527   10.5051 C.ar    1  UNL1       -0.0029
     21 C          63.8831   91.9346    9.8529 C.ar    1  UNL1       -0.0005
     22 C          63.1973   90.8743   10.6625 C.ar    1  UNL1        0.0000
     23 C          63.5022   90.7322   12.1243 C.ar    1  UNL1       -0.0005
     24 C          64.4930   91.6503   12.7765 C.ar    1  UNL1       -0.0029
     25 C          66.1696   93.6288   12.6190 C.3     1  UNL1        0.0992
     26 C          69.5112   91.6692   17.2009 C.3     1  UNL1        0.0897
     27 N          68.6758   92.1591   16.0555 N.3     1  UNL1       -0.2691
     28 C          67.3728   92.8532   16.3205 C.3     1  UNL1        0.0897
     29 C          66.5373   93.3431   15.1750 C.3     1  UNL1        0.0899
     30 N          67.0050   93.1389   13.7645 N.3     1  UNL1       -0.2665
     31 C          68.3081   92.4448   13.4995 C.3     1  UNL1        0.0899
     32 C          69.1435   91.9549   14.6449 C.3     1  UNL1        0.0897
@<TRIPOS>BOND
     1    26    27    1
     2    27    28    1
     3    28    29    1
     4    29    30    1
     5    30    25    1
     6    25    19    1
     7    19    20   ar
     8    20    21   ar
     9    21    22   ar
    10    22     1    1
    11     1     2    2
    12     2     3    1
    13     3     4    2
    14     4     5    1
    15     5     6    2
    16     6     7    1
    17     7    10    1
    18    10    11    2
    19    11    12    1
    20    12    13    2
    21    13    14    1
    22    14    15    2
    23    15    16    1
    24    16    17    2
    25    17    18    1
    26     7     8    2
    27     8     9    1
    28    22    23   ar
    29    23    24   ar
    30    30    31    1
    31    31    32    1
    32    32    27    1
    33    24    19   ar
    34     9     1    1
    35     8     4    1
    36    18    10    1
    37    17    13    1
@<TRIPOS>MOLECULE
*****
 32 37 0 0 0
SMALL
GASTEIGER

@<TRIPOS>ATOM
      1 C          60.7251   92.7723    2.3829 C.2     1  UNL1        0.0292
      2 C          62.1958   93.0358    2.2501 C.2     1  UNL1        0.2320
      3 N          62.7166   93.8050    1.0724 N.2     1  UNL1       -0.0311
      4 C          61.7667   94.3107    0.0275 C.2     1  UNL1        0.3720
      5 N          61.9856   95.0923   -1.2341 N.2     1  UNL1       -0.0308
      6 C          60.6501   95.3118   -1.8809 C.2     1  UNL1        0.2355
      7 C          59.6059   94.6660   -1.0191 C.2     1  UNL1        0.0469
      8 C          60.2960   94.0473    0.1603 C.2     1  UNL1        0.0740
      9 C          59.7752   93.2781    1.3380 C.3     1  UNL1        0.0645
     10 C          58.1307   94.6429   -1.2893 C.2     1  UNL1       -0.0140
     11 C          57.4929   93.4139   -1.8660 C.2     1  UNL1       -0.0023
     12 C          56.0176   93.3908   -2.1362 C.2     1  UNL1        0.0185
     13 C          55.1800   94.5968   -1.8297 C.2     1  UNL1        0.0777
     14 N          53.7130   94.8666   -1.9880 N.2     1  UNL1       -0.2442
     15 C          53.4441   96.2624   -1.5092 C.2     1  UNL1        0.0985
     16 C          54.7449   96.8553   -1.0549 C.2     1  UNL1        0.0182
     17 C          55.8178   95.8259   -1.2531 C.2     1  UNL1        0.0014
     18 C          57.2931   95.8490   -0.9828 C.3     1  UNL1        0.0543
     19 C          59.1626   90.4647    5.9162 C.ar    1  UNL1       -0.0061
     20 C          58.2237   91.2828    5.0800 C.ar    1  UNL1       -0.0029
     21 C          58.7445   92.0520    3.9023 C.ar    1  UNL1       -0.0005
     22 C          60.2043   92.0031    3.5607 C.ar    1  UNL1        0.0000
     23 C          61.1432   91.1850    4.3968 C.ar    1  UNL1       -0.0005
     24 C          60.6224   90.4157    5.5746 C.ar    1  UNL1       -0.0029
     25 C          58.6417   89.6955    7.0939 C.3     1  UNL1        0.0992
     26 C          62.1515   85.6817    9.8454 C.3     1  UNL1        0.0897
     27 N          61.2741   86.6851    9.1575 N.3     1  UNL1       -0.2691
     28 C          60.3305   86.2418    8.0791 C.3     1  UNL1        0.0897
     29 C          59.4530   87.2453    7.3912 C.3     1  UNL1        0.0899
     30 N          59.5192   88.6920    7.7817 N.3     1  UNL1       -0.2665
     31 C          60.4629   89.1353    8.8602 C.3     1  UNL1        0.0899
     32 C          61.3403   88.1319    9.5481 C.3     1  UNL1        0.0897
@<TRIPOS>BOND
     1    26    27    1
     2    27    28    1
     3    28    29    1
     4    29    30    1
     5    30    25    1
     6    25    19    1
     7    19    20   ar
     8    20    21   ar
     9    21    22   ar
    10    22     1    1
    11     1     2    2
    12     2     3    1
    13     3     4    2
    14     4     5    1
    15     5     6    2
    16     6     7    1
    17     7    10    1
    18    10    11    2
    19    11    12    1
    20    12    13    2
    21    13    14    1
    22    14    15    2
    23    15    16    1
    24    16    17    2
    25    17    18    1
    26     7     8    2
    27     8     9    1
    28    22    23   ar
    29    23    24   ar
    30    30    31    1
    31    31    32    1
    32    32    27    1
    33    24    19   ar
    34     9     1    1
    35     8     4    1
    36    18    10    1
    37    17    13    1
@<TRIPOS>MOLECULE
*****
 32 37 0 0 0
SMALL
GASTEIGER

@<TRIPOS>ATOM
      1 C          61.9631   92.8565    2.1353 C.2     1  UNL1        0.0292
      2 C          63.3732   93.2847    2.4148 C.2     1  UNL1        0.2320
      3 N          64.1875   93.9345    1.3356 N.2     1  UNL1       -0.0311
      4 C          63.5917   94.1562   -0.0230 C.2     1  UNL1        0.3720
      5 N          64.1475   94.7671   -1.2752 N.2     1  UNL1       -0.0308
      6 C          63.0808   94.7165   -2.3286 C.2     1  UNL1        0.2355
      7 C          61.8658   94.0743   -1.7274 C.2     1  UNL1        0.0469
      8 C          62.1815   93.7280   -0.3025 C.2     1  UNL1        0.0740
      9 C          61.3672   93.0782    0.7767 C.3     1  UNL1        0.0645
     10 C          60.5636   93.8226   -2.4281 C.2     1  UNL1       -0.0140
     11 C          60.3754   94.2741   -3.8460 C.2     1  UNL1       -0.0023
     12 C          59.0732   94.0224   -4.5467 C.2     1  UNL1        0.0185
     13 C          57.9592   93.3191   -3.8295 C.2     1  UNL1        0.0777
     14 N          56.5744   92.9343   -4.2586 N.2     1  UNL1       -0.2442
     15 C          55.9068   92.2449   -3.1058 C.2     1  UNL1        0.0985
     16 C          56.8789   92.2037   -1.9642 C.2     1  UNL1        0.0182
     17 C          58.1475   92.8676   -2.4115 C.2     1  UNL1        0.0014
     18 C          59.4496   93.1193   -1.7108 C.3     1  UNL1        0.0543
     19 C          59.5199   90.9070    5.3727 C.ar    1  UNL1       -0.0061
     20 C          58.9114   91.9769    4.5152 C.ar    1  UNL1       -0.0029
     21 C          59.7258   92.6267    3.4361 C.ar    1  UNL1       -0.0005
     22 C          61.1487   92.2067    3.2144 C.ar    1  UNL1        0.0000
     23 C          61.7571   91.1368    4.0718 C.ar    1  UNL1       -0.0005
     24 C          60.9427   90.4869    5.1510 C.ar    1  UNL1       -0.0029
     25 C          58.7055   90.2572    6.4518 C.3     1  UNL1        0.0992
     26 C          61.2086   86.1482   10.0364 C.3     1  UNL1        0.0897
     27 N          60.5829   87.1754    9.1403 N.3     1  UNL1       -0.2691
     28 C          59.7287   86.7429    7.9856 C.3     1  UNL1        0.0897
     29 C          59.1029   87.7701    7.0894 C.3     1  UNL1        0.0899
     30 N          59.3313   89.2299    7.3479 N.3     1  UNL1       -0.2665
     31 C          60.1854   89.6625    8.5027 C.3     1  UNL1        0.0899
     32 C          60.8112   88.6352    9.3988 C.3     1  UNL1        0.0897
@<TRIPOS>BOND
     1    26    27    1
     2    27    28    1
     3    28    29    1
     4    29    30    1
     5    30    25    1
     6    25    19    1
     7    19    20   ar
     8    20    21   ar
     9    21    22   ar
    10    22     1    1
    11     1     2    2
    12     2     3    1
    13     3     4    2
    14     4     5    1
    15     5     6    2
    16     6     7    1
    17     7    10    1
    18    10    11    2
    19    11    12    1
    20    12    13    2
    21    13    14    1
    22    14    15    2
    23    15    16    1
    24    16    17    2
    25    17    18    1
    26     7     8    2
    27     8     9    1
    28    22    23   ar
    29    23    24   ar
    30    30    31    1
    31    31    32    1
    32    32    27    1
    33    24    19   ar
    34     9     1    1
    35     8     4    1
    36    18    10    1
    37    17    13    1
@<TRIPOS>MOLECULE
*****
 32 37 0 0 0
SMALL
GASTEIGER

@<TRIPOS>ATOM
      1 C          72.9236   76.7290   14.4753 C.2     1  UNL1        0.0292
      2 C          73.5012   76.9347   15.8442 C.2     1  UNL1        0.2320
      3 N          73.6330   75.7738   16.7848 N.2     1  UNL1       -0.0311
      4 C          73.1873   74.4071   16.3564 C.2     1  UNL1        0.3720
      5 N          73.1935   73.0827   17.0608 N.2     1  UNL1       -0.0308
      6 C          72.6197   72.0585   16.1270 C.2     1  UNL1        0.2355
      7 C          72.2590   72.7499   14.8457 C.2     1  UNL1        0.0469
      8 C          72.6098   74.2014   14.9874 C.2     1  UNL1        0.0740
      9 C          72.4779   75.3624   14.0469 C.3     1  UNL1        0.0645
     10 C          71.6537   72.1033   13.6351 C.2     1  UNL1       -0.0140
     11 C          70.2886   71.4872   13.7173 C.2     1  UNL1       -0.0023
     12 C          69.6833   70.8406   12.5067 C.2     1  UNL1        0.0185
     13 C          70.4432   70.8102   11.2138 C.2     1  UNL1        0.0777
     14 N          70.1062   70.2480    9.8646 N.2     1  UNL1       -0.2442
     15 C          71.2631   70.5168    8.9484 C.2     1  UNL1        0.0985
     16 C          72.3150   71.2450    9.7314 C.2     1  UNL1        0.0182
     17 C          71.8083   71.4263   11.1315 C.2     1  UNL1        0.0014
     18 C          72.4136   72.0729   12.3421 C.3     1  UNL1        0.0543
     19 C          72.5280   80.2120   11.6534 C.ar    1  UNL1       -0.0061
     20 C          71.7188   78.9690   11.4288 C.ar    1  UNL1       -0.0029
     21 C          71.8507   77.8081   12.3694 C.ar    1  UNL1       -0.0005
     22 C          72.7918   77.8901   13.5346 C.ar    1  UNL1        0.0000
     23 C          73.6009   79.1330   13.7593 C.ar    1  UNL1       -0.0005
     24 C          73.4690   80.2940   12.8186 C.ar    1  UNL1       -0.0029
     25 C          72.3961   81.3729   10.7128 C.3     1  UNL1        0.0992
     26 C          72.8647   80.5067    4.7942 C.3     1  UNL1        0.0897
     27 N          72.7475   80.7233    6.2738 N.3     1  UNL1       -0.2691
     28 C          73.2360   79.6727    7.2265 C.3     1  UNL1        0.0897
     29 C          73.1188   79.8892    8.7062 C.3     1  UNL1        0.0899
     30 N          72.5133   81.1564    9.2331 N.3     1  UNL1       -0.2665
     31 C          72.0248   82.2070    8.2804 C.3     1  UNL1        0.0899
     32 C          72.1420   81.9904    6.8007 C.3     1  UNL1        0.0897
@<TRIPOS>BOND
     1    26    27    1
     2    27    28    1
     3    28    29    1
     4    29    30    1
     5    30    25    1
     6    25    19    1
     7    19    20   ar
     8    20    21   ar
     9    21    22   ar
    10    22     1    1
    11     1     2    2
    12     2     3    1
    13     3     4    2
    14     4     5    1
    15     5     6    2
    16     6     7    1
    17     7    10    1
    18    10    11    2
    19    11    12    1
    20    12    13    2
    21    13    14    1
    22    14    15    2
    23    15    16    1
    24    16    17    2
    25    17    18    1
    26     7     8    2
    27     8     9    1
    28    22    23   ar
    29    23    24   ar
    30    30    31    1
    31    31    32    1
    32    32    27    1
    33    24    19   ar
    34     9     1    1
    35     8     4    1
    36    18    10    1
    37    17    13    1
