@<TRIPOS>MOLECULE
*****
 39 44 0 0 0
SMALL
GASTEIGER

@<TRIPOS>ATOM
      1 C          62.4838   82.4863   12.8684 C.ar    1  UNL1        0.2928
      2 C          62.4524   82.1479   11.4074 C.ar    1  UNL1        0.0754
      3 C          62.7515   83.2049   10.3861 C.ar    1  UNL1        0.0078
      4 C          63.0820   84.6004   10.8257 C.ar    1  UNL1        0.0177
      5 C          63.1134   84.9389   12.2866 C.ar    1  UNL1        0.0677
      6 C          62.8143   83.8818   13.3080 C.ar    1  UNL1        0.1042
      7 C          62.9205   84.5073   14.6672 C.ar    1  UNL1        0.1088
      8 N          62.7323   83.9488   16.0465 N.ar    1  UNL1       -0.2222
      9 C          62.9088   84.8340   17.2446 C.ar    1  UNL1        0.2001
     10 N          63.2736   86.2776   17.0633 N.ar    1  UNL1       -0.2075
     11 C          63.4619   86.8361   15.6840 C.ar    1  UNL1        0.1509
     12 C          63.2853   85.9509   14.4859 C.ar    1  UNL1        0.1103
     13 N          63.4045   86.2176   13.0146 N.ar    1  UNL1       -0.3193
     14 N          63.8267   88.2797   15.5027 N.pl3   1  UNL1       -0.2892
     15 C          64.9459   88.6602   14.5796 C.3     1  UNL1        0.1095
     16 C          65.3107   90.1039   14.3983 C.3     1  UNL1        0.0939
     17 N          64.5562   91.1670   15.1403 N.3     1  UNL1       -0.2695
     18 C          63.4368   90.7864   16.0635 C.3     1  UNL1        0.0939
     19 C          63.0721   89.3429   16.2447 C.3     1  UNL1        0.1095
     20 C          64.9210   92.6106   14.9590 C.3     1  UNL1        0.0769
     21 C          66.2859   92.9824   14.4603 C.3     1  UNL1        0.0437
     22 C          66.5005   93.2658   13.0030 C.ar    1  UNL1       -0.0184
     23 C          66.1002   94.5929   12.4302 C.ar    1  UNL1       -0.0018
     24 C          66.3148   94.8763   10.9728 C.ar    1  UNL1        0.0316
     25 C          66.9297   93.8324   10.0885 C.ar    1  UNL1        0.1674
     26 F          67.1443   94.1158    8.6312 F       1  UNL1       -0.2018
     27 C          67.3301   92.5052   10.6613 C.ar    1  UNL1        0.1671
     28 F          67.9450   91.4613    9.7769 F       1  UNL1       -0.2018
     29 C          67.1155   92.2219   12.1186 C.ar    1  UNL1        0.0277
     30 O          60.7637   81.1306   14.2660 O.2     1  UNL1        0.0415
     31 N          62.1846   81.4292   13.8897 N.pl3   1  UNL1        0.0810
     32 O          63.3065   80.6708   14.5348 O.co2   1  UNL1       -0.5760
     33 C          63.7536   87.5323   12.3823 C.3     1  UNL1        0.1344
     34 C          62.6973   88.3282   11.6748 C.ar    1  UNL1        0.0196
     35 C          62.1691   87.8631   10.3501 C.ar    1  UNL1        0.0007
     36 C          61.1128   88.6590    9.6425 C.ar    1  UNL1        0.0204
     37 C          60.5847   89.9201   10.2595 C.ar    1  UNL1        0.0989
     38 N          61.1128   90.3853   11.5842 N.ar    1  UNL1       -0.2426
     39 C          62.1691   89.5893   12.2918 C.ar    1  UNL1        0.0965
@<TRIPOS>UNITY_ATOM_ATTR
31 1
charge 1
32 1
charge -1
@<TRIPOS>BOND
     1    30    31    2
     2    31    32    1
     3    31     1    1
     4     1     2   ar
     5     2     3   ar
     6     3     4   ar
     7     4     5   ar
     8     5     6   ar
     9     6     7   ar
    10     7     8   ar
    11     8     9   ar
    12     9    10   ar
    13    10    11   ar
    14    11    14    1
    15    14    15    1
    16    15    16    1
    17    16    17    1
    18    17    20    1
    19    20    21    1
    20    21    22    1
    21    22    23   ar
    22    23    24   ar
    23    24    25   ar
    24    25    26    1
    25    25    27   ar
    26    27    28    1
    27    27    29   ar
    28    17    18    1
    29    18    19    1
    30    11    12   ar
    31    12    13   ar
    32    13    33    1
    33    33    34    1
    34    34    35   ar
    35    35    36   ar
    36    36    37   ar
    37    37    38   ar
    38    38    39   ar
    39     6     1   ar
    40    12     7   ar
    41    39    34   ar
    42    13     5   ar
    43    19    14    1
    44    29    22   ar
@<TRIPOS>MOLECULE
*****
 39 44 0 0 0
SMALL
GASTEIGER

@<TRIPOS>ATOM
      1 C          62.8492   80.8619   12.6672 C.ar    1  UNL1        0.2928
      2 C          62.8232   80.1260   11.3603 C.ar    1  UNL1        0.0754
      3 C          62.9359   80.8837   10.0706 C.ar    1  UNL1        0.0078
      4 C          63.0744   82.3771   10.0878 C.ar    1  UNL1        0.0177
      5 C          63.1003   83.1129   11.3946 C.ar    1  UNL1        0.0677
      6 C          62.9877   82.3553   12.6843 C.ar    1  UNL1        0.1042
      7 C          63.0432   83.3454   13.8098 C.ar    1  UNL1        0.1088
      8 N          62.9790   83.1768   15.2989 N.ar    1  UNL1       -0.2222
      9 C          63.0616   84.3777   16.1939 C.ar    1  UNL1        0.2001
     10 N          63.2086   85.7471   15.5998 N.ar    1  UNL1       -0.2075
     11 C          63.2728   85.9157   14.1108 C.ar    1  UNL1        0.1509
     12 C          63.1902   84.7148   13.2157 C.ar    1  UNL1        0.1103
     13 N          63.2254   84.5712   11.7230 N.ar    1  UNL1       -0.3193
     14 N          63.4197   87.2852   13.5167 N.pl3   1  UNL1       -0.2892
     15 C          64.3145   88.2950   14.1721 C.3     1  UNL1        0.1095
     16 C          64.4614   89.6645   13.5780 C.3     1  UNL1        0.0939
     17 N          63.7135   90.0242   12.3285 N.3     1  UNL1       -0.2695
     18 C          62.8187   89.0144   11.6730 C.3     1  UNL1        0.0939
     19 C          62.6718   87.6449   12.2671 C.3     1  UNL1        0.1095
     20 C          63.8604   91.3937   11.7344 C.3     1  UNL1        0.0769
     21 C          64.9763   92.2901   12.1830 C.3     1  UNL1        0.0437
     22 C          65.7818   93.0491   11.1706 C.ar    1  UNL1       -0.0184
     23 C          65.4672   94.4882   10.8880 C.ar    1  UNL1       -0.0018
     24 C          66.2728   95.2472    9.8755 C.ar    1  UNL1        0.0316
     25 C          67.3929   94.5670    9.1457 C.ar    1  UNL1        0.1674
     26 F          68.1984   95.3261    8.1332 F       1  UNL1       -0.2018
     27 C          67.7075   93.1279    9.4282 C.ar    1  UNL1        0.1671
     28 F          68.8276   92.4477    8.6984 F       1  UNL1       -0.2018
     29 C          66.9020   92.3689   10.4407 C.ar    1  UNL1        0.0277
     30 O          61.4213   79.5098   14.3651 O.2     1  UNL1        0.0415
     31 N          62.7366   80.1043   13.9569 N.pl3   1  UNL1        0.0810
     32 O          63.9392   79.9411   14.8383 O.co2   1  UNL1       -0.5760
     33 C          63.3619   85.6895   10.7326 C.3     1  UNL1        0.1344
     34 C          62.5076   85.7080    9.4999 C.ar    1  UNL1        0.0196
     35 C          63.0469   85.1757    8.2055 C.ar    1  UNL1        0.0007
     36 C          62.1925   85.1943    6.9727 C.ar    1  UNL1        0.0204
     37 C          60.7987   85.7452    7.0344 C.ar    1  UNL1        0.0989
     38 N          60.2593   86.2776    8.3289 N.ar    1  UNL1       -0.2426
     39 C          61.1137   86.2590    9.5616 C.ar    1  UNL1        0.0965
@<TRIPOS>UNITY_ATOM_ATTR
31 1
charge 1
32 1
charge -1
@<TRIPOS>BOND
     1    30    31    2
     2    31    32    1
     3    31     1    1
     4     1     2   ar
     5     2     3   ar
     6     3     4   ar
     7     4     5   ar
     8     5     6   ar
     9     6     7   ar
    10     7     8   ar
    11     8     9   ar
    12     9    10   ar
    13    10    11   ar
    14    11    14    1
    15    14    15    1
    16    15    16    1
    17    16    17    1
    18    17    20    1
    19    20    21    1
    20    21    22    1
    21    22    23   ar
    22    23    24   ar
    23    24    25   ar
    24    25    26    1
    25    25    27   ar
    26    27    28    1
    27    27    29   ar
    28    17    18    1
    29    18    19    1
    30    11    12   ar
    31    12    13   ar
    32    13    33    1
    33    33    34    1
    34    34    35   ar
    35    35    36   ar
    36    36    37   ar
    37    37    38   ar
    38    38    39   ar
    39     6     1   ar
    40    12     7   ar
    41    39    34   ar
    42    13     5   ar
    43    19    14    1
    44    29    22   ar
@<TRIPOS>MOLECULE
*****
 39 44 0 0 0
SMALL
GASTEIGER

@<TRIPOS>ATOM
      1 C          65.7474   93.9614   11.9538 C.ar    1  UNL1        0.2928
      2 C          65.6465   94.0422   10.4594 C.ar    1  UNL1        0.0754
      3 C          65.0741   92.8933    9.6832 C.ar    1  UNL1        0.0078
      4 C          64.6027   91.6637   10.4014 C.ar    1  UNL1        0.0177
      5 C          64.7036   91.5830   11.8957 C.ar    1  UNL1        0.0677
      6 C          65.2759   92.7319   12.6720 C.ar    1  UNL1        0.1042
      7 C          65.2493   92.3674   14.1268 C.ar    1  UNL1        0.1088
      8 N          65.6851   93.1092   15.3555 N.ar    1  UNL1       -0.2222
      9 C          65.5321   92.4769   16.7071 C.ar    1  UNL1        0.2001
     10 N          64.9434   91.1028   16.8300 N.ar    1  UNL1       -0.2075
     11 C          64.5075   90.3610   15.6013 C.ar    1  UNL1        0.1509
     12 C          64.6605   90.9933   14.2497 C.ar    1  UNL1        0.1103
     13 N          64.3232   90.5085   12.8708 N.ar    1  UNL1       -0.3193
     14 N          63.9187   88.9868   15.7242 N.pl3   1  UNL1       -0.2892
     15 C          62.7829   88.7397   16.6722 C.3     1  UNL1        0.1095
     16 C          62.1941   87.3654   16.7950 C.3     1  UNL1        0.0939
     17 N          62.7412   86.2386   15.9700 N.3     1  UNL1       -0.2695
     18 C          63.8771   86.4858   15.0220 C.3     1  UNL1        0.0939
     19 C          64.4659   87.8599   14.8992 C.3     1  UNL1        0.1095
     20 C          62.1524   84.8644   16.0929 C.3     1  UNL1        0.0769
     21 C          63.0122   83.6568   15.8639 C.3     1  UNL1        0.0437
     22 C          63.0067   82.9746   14.5280 C.ar    1  UNL1       -0.0184
     23 C          62.0650   81.8357   14.2713 C.ar    1  UNL1       -0.0018
     24 C          62.0595   81.1536   12.9354 C.ar    1  UNL1        0.0316
     25 C          62.9958   81.6104   11.8562 C.ar    1  UNL1        0.1674
     26 F          62.9903   80.9282   10.5203 F       1  UNL1       -0.2018
     27 C          63.9376   82.7493   12.1128 C.ar    1  UNL1        0.1671
     28 F          64.8738   83.2061   11.0336 F       1  UNL1       -0.2018
     29 C          63.9430   83.4314   13.4487 C.ar    1  UNL1        0.0277
     30 O          66.0484   96.5195   12.2937 O.2     1  UNL1        0.0415
     31 N          66.3197   95.1103   12.7300 N.pl3   1  UNL1        0.0810
     32 O          67.1634   94.8500   13.9426 O.co2   1  UNL1       -0.5760
     33 C          63.7128   89.1821   12.5273 C.3     1  UNL1        0.1344
     34 C          62.5392   89.1153   11.5956 C.ar    1  UNL1        0.0196
     35 C          62.4456   88.0106   10.5852 C.ar    1  UNL1        0.0007
     36 C          61.2720   87.9438    9.6535 C.ar    1  UNL1        0.0204
     37 C          60.1920   88.9817    9.7320 C.ar    1  UNL1        0.0989
     38 N          60.2855   90.0865   10.7424 N.ar    1  UNL1       -0.2426
     39 C          61.4591   90.1532   11.6742 C.ar    1  UNL1        0.0965
@<TRIPOS>UNITY_ATOM_ATTR
31 1
charge 1
32 1
charge -1
@<TRIPOS>BOND
     1    30    31    2
     2    31    32    1
     3    31     1    1
     4     1     2   ar
     5     2     3   ar
     6     3     4   ar
     7     4     5   ar
     8     5     6   ar
     9     6     7   ar
    10     7     8   ar
    11     8     9   ar
    12     9    10   ar
    13    10    11   ar
    14    11    14    1
    15    14    15    1
    16    15    16    1
    17    16    17    1
    18    17    20    1
    19    20    21    1
    20    21    22    1
    21    22    23   ar
    22    23    24   ar
    23    24    25   ar
    24    25    26    1
    25    25    27   ar
    26    27    28    1
    27    27    29   ar
    28    17    18    1
    29    18    19    1
    30    11    12   ar
    31    12    13   ar
    32    13    33    1
    33    33    34    1
    34    34    35   ar
    35    35    36   ar
    36    36    37   ar
    37    37    38   ar
    38    38    39   ar
    39     6     1   ar
    40    12     7   ar
    41    39    34   ar
    42    13     5   ar
    43    19    14    1
    44    29    22   ar
@<TRIPOS>MOLECULE
*****
 39 44 0 0 0
SMALL
GASTEIGER

@<TRIPOS>ATOM
      1 C          63.0651   82.7707   10.4505 C.ar    1  UNL1        0.2928
      2 C          62.7810   83.0880    9.0122 C.ar    1  UNL1        0.0754
      3 C          62.6299   84.5147    8.5747 C.ar    1  UNL1        0.0078
      4 C          62.7628   85.6242    9.5753 C.ar    1  UNL1        0.0177
      5 C          63.0468   85.3069   11.0136 C.ar    1  UNL1        0.0677
      6 C          63.1980   83.8802   11.4511 C.ar    1  UNL1        0.1042
      7 C          63.4737   83.8743   12.9256 C.ar    1  UNL1        0.1088
      8 N          63.7097   82.7569   13.8981 N.ar    1  UNL1       -0.2222
      9 C          63.9649   83.0626   15.3443 C.ar    1  UNL1        0.2001
     10 N          63.9841   84.4857   15.8179 N.ar    1  UNL1       -0.2075
     11 C          63.7481   85.6031   14.8455 C.ar    1  UNL1        0.1509
     12 C          63.4929   85.2974   13.3993 C.ar    1  UNL1        0.1103
     13 N          63.2291   86.1828   12.2176 N.ar    1  UNL1       -0.3193
     14 N          63.7673   87.0262   15.3192 N.pl3   1  UNL1       -0.2892
     15 C          63.0858   87.3988   16.6023 C.3     1  UNL1        0.1095
     16 C          63.1051   88.8220   17.0760 C.3     1  UNL1        0.0939
     17 N          63.8059   89.8725   16.2664 N.3     1  UNL1       -0.2695
     18 C          64.4874   89.4998   14.9832 C.3     1  UNL1        0.0939
     19 C          64.4682   88.0768   14.5096 C.3     1  UNL1        0.1095
     20 C          63.8251   91.2956   16.7401 C.3     1  UNL1        0.0769
     21 C          64.3570   92.3764   15.8464 C.3     1  UNL1        0.0437
     22 C          65.7861   92.3385   15.3923 C.ar    1  UNL1       -0.0184
     23 C          66.8938   92.5350   16.3844 C.ar    1  UNL1       -0.0018
     24 C          68.3229   92.4970   15.9303 C.ar    1  UNL1        0.0316
     25 C          68.6443   92.2626   14.4840 C.ar    1  UNL1        0.1674
     26 F          70.0734   92.2247   14.0299 F       1  UNL1       -0.2018
     27 C          67.5366   92.0661   13.4918 C.ar    1  UNL1        0.1671
     28 F          67.8580   91.8317   12.0456 F       1  UNL1       -0.2018
     29 C          66.1076   92.1041   13.9460 C.ar    1  UNL1        0.0277
     30 O          63.4397   81.0232   12.3362 O.2     1  UNL1        0.0415
     31 N          63.2163   81.3439   10.8881 N.pl3   1  UNL1        0.0810
     32 O          63.1440   80.2378    9.8775 O.co2   1  UNL1       -0.5760
     33 C          63.1597   87.6811   12.2365 C.3     1  UNL1        0.1344
     34 C          62.1412   88.3954   11.3985 C.ar    1  UNL1        0.0196
     35 C          62.5798   89.4299   10.4048 C.ar    1  UNL1        0.0007
     36 C          61.5612   90.1442    9.5668 C.ar    1  UNL1        0.0204
     37 C          60.1041   89.8241    9.7225 C.ar    1  UNL1        0.0989
     38 N          59.6654   88.7896   10.7163 N.ar    1  UNL1       -0.2426
     39 C          60.6840   88.0753   11.5542 C.ar    1  UNL1        0.0965
@<TRIPOS>UNITY_ATOM_ATTR
31 1
charge 1
32 1
charge -1
@<TRIPOS>BOND
     1    30    31    2
     2    31    32    1
     3    31     1    1
     4     1     2   ar
     5     2     3   ar
     6     3     4   ar
     7     4     5   ar
     8     5     6   ar
     9     6     7   ar
    10     7     8   ar
    11     8     9   ar
    12     9    10   ar
    13    10    11   ar
    14    11    14    1
    15    14    15    1
    16    15    16    1
    17    16    17    1
    18    17    20    1
    19    20    21    1
    20    21    22    1
    21    22    23   ar
    22    23    24   ar
    23    24    25   ar
    24    25    26    1
    25    25    27   ar
    26    27    28    1
    27    27    29   ar
    28    17    18    1
    29    18    19    1
    30    11    12   ar
    31    12    13   ar
    32    13    33    1
    33    33    34    1
    34    34    35   ar
    35    35    36   ar
    36    36    37   ar
    37    37    38   ar
    38    38    39   ar
    39     6     1   ar
    40    12     7   ar
    41    39    34   ar
    42    13     5   ar
    43    19    14    1
    44    29    22   ar
