@<TRIPOS>MOLECULE
*****
 24 27 0 0 0
SMALL
GASTEIGER

@<TRIPOS>ATOM
      1 C          63.4478   90.1248   12.3104 C.ar    1  UNL1        0.0206
      2 C          63.7558   89.3149   13.5347 C.ar    1  UNL1        0.0989
      3 N          64.7879   89.7950   14.5115 N.ar    1  UNL1       -0.2423
      4 C          65.5121   91.0851   14.2639 C.ar    1  UNL1        0.0985
      5 C          66.5717   91.8069   15.0427 C.ar    1  UNL1        0.0392
      6 C          66.9185   93.0628   14.2996 C.ar    1  UNL1        0.0779
      7 N          66.0733   93.1173   13.0616 N.ar    1  UNL1       -0.3165
      8 C          65.2041   91.8951   13.0395 C.ar    1  UNL1        0.0782
      9 C          64.1719   91.4149   12.0628 C.ar    1  UNL1        0.0203
     10 C          61.6910   86.4837    9.0459 C.3     1  UNL1        0.0334
     11 C          61.5372   87.8241    9.7013 C.ar    1  UNL1        0.0056
     12 C          62.5694   88.3042   10.6782 C.ar    1  UNL1       -0.0020
     13 C          62.4156   89.6447   11.3335 C.ar    1  UNL1        0.0014
     14 C          61.2297   90.5050   11.0121 C.ar    1  UNL1        0.0023
     15 C          60.1975   90.0249   10.0354 C.ar    1  UNL1        0.0293
     16 C          60.3513   88.6844    9.3799 C.ar    1  UNL1        0.1361
     17 F          59.3191   88.2044    8.4031 F       1  UNL1       -0.2045
     18 C          66.0936   94.2035   12.0272 C.3     1  UNL1        0.1920
     19 C          66.6936   93.9425   10.6774 C.2     1  UNL1        0.2487
     20 O          67.0292   92.5402   10.2642 O.2     1  UNL1       -0.2728
     21 N          66.9581   95.0840    9.7408 N.am    1  UNL1       -0.2778
     22 C          67.5270   95.2120    8.3588 C.3     1  UNL1        0.0952
     23 C          67.3320   96.6982    8.4162 C.3     1  UNL1        0.0430
     24 C          66.7631   96.5701    9.7983 C.3     1  UNL1        0.0952
@<TRIPOS>BOND
     1    10    11    1
     2    11    12   ar
     3    12    13   ar
     4    13     1    1
     5     1     2   ar
     6     2     3   ar
     7     3     4   ar
     8     4     5   ar
     9     5     6   ar
    10     6     7   ar
    11     7    18    1
    12    18    19    1
    13    19    20    2
    14    19    21   am
    15    21    22    1
    16    22    23    1
    17    23    24    1
    18     7     8   ar
    19     8     9   ar
    20    13    14   ar
    21    14    15   ar
    22    15    16   ar
    23    16    17    1
    24    16    11   ar
    25     9     1   ar
    26     8     4   ar
    27    24    21    1
@<TRIPOS>MOLECULE
*****
 24 27 0 0 0
SMALL
GASTEIGER

@<TRIPOS>ATOM
      1 C          64.0776   89.6594   14.7277 C.ar    1  UNL1        0.0206
      2 C          63.4852   90.2040   15.9935 C.ar    1  UNL1        0.0989
      3 N          63.0368   89.2669   17.0755 N.ar    1  UNL1       -0.2423
      4 C          63.1807   87.7852   16.8916 C.ar    1  UNL1        0.0985
      5 C          62.8304   86.6253   17.7759 C.ar    1  UNL1        0.0392
      6 C          63.2063   85.3639   17.0565 C.ar    1  UNL1        0.0779
      7 N          63.7889   85.7442   15.7276 N.ar    1  UNL1       -0.3165
      8 C          63.7731   87.2406   15.6257 C.ar    1  UNL1        0.0782
      9 C          64.2215   88.1777   14.5437 C.ar    1  UNL1        0.0203
     10 C          63.4574   91.6772    9.9796 C.3     1  UNL1        0.0334
     11 C          64.2160   91.6055   11.2716 C.ar    1  UNL1        0.0056
     12 C          63.7675   90.6683   12.3536 C.ar    1  UNL1       -0.0020
     13 C          64.5261   90.5966   13.6456 C.ar    1  UNL1        0.0014
     14 C          65.7332   91.4619   13.8557 C.ar    1  UNL1        0.0023
     15 C          66.1817   92.3990   12.7738 C.ar    1  UNL1        0.0293
     16 C          65.4230   92.4708   11.4817 C.ar    1  UNL1        0.1361
     17 F          65.8715   93.4079   10.3997 F       1  UNL1       -0.2045
     18 C          64.2980   84.7947   14.6839 C.3     1  UNL1        0.1920
     19 C          63.4303   84.4278   13.5166 C.2     1  UNL1        0.2487
     20 O          62.7686   85.5030   12.7067 O.2     1  UNL1       -0.2728
     21 N          63.2243   82.9856   13.1593 N.am    1  UNL1       -0.2778
     22 C          62.4542   82.2550   12.0994 C.3     1  UNL1        0.0952
     23 C          62.9328   80.9461   12.6539 C.3     1  UNL1        0.0430
     24 C          63.7029   81.6767   13.7138 C.3     1  UNL1        0.0952
@<TRIPOS>BOND
     1    10    11    1
     2    11    12   ar
     3    12    13   ar
     4    13     1    1
     5     1     2   ar
     6     2     3   ar
     7     3     4   ar
     8     4     5   ar
     9     5     6   ar
    10     6     7   ar
    11     7    18    1
    12    18    19    1
    13    19    20    2
    14    19    21   am
    15    21    22    1
    16    22    23    1
    17    23    24    1
    18     7     8   ar
    19     8     9   ar
    20    13    14   ar
    21    14    15   ar
    22    15    16   ar
    23    16    17    1
    24    16    11   ar
    25     9     1   ar
    26     8     4   ar
    27    24    21    1
@<TRIPOS>MOLECULE
*****
 24 27 0 0 0
SMALL
GASTEIGER

@<TRIPOS>ATOM
      1 C          63.4989   85.6553   13.1572 C.ar    1  UNL1        0.0206
      2 C          64.0473   85.9832   14.5143 C.ar    1  UNL1        0.0989
      3 N          64.2558   87.4140   14.9132 N.ar    1  UNL1       -0.2423
      4 C          63.9159   88.5170   13.9551 C.ar    1  UNL1        0.0985
      5 C          64.0133   90.0097   14.0675 C.ar    1  UNL1        0.0392
      6 C          63.5251   90.6042   12.7799 C.ar    1  UNL1        0.0779
      7 N          63.1260   89.4791   11.8717 N.ar    1  UNL1       -0.3165
      8 C          63.3675   88.1891   12.5980 C.ar    1  UNL1        0.0782
      9 C          63.1590   86.7583   12.1991 C.ar    1  UNL1        0.0203
     10 C          61.4335   80.9791   14.0884 C.3     1  UNL1        0.0334
     11 C          62.2577   81.8863   13.2238 C.ar    1  UNL1        0.0056
     12 C          62.4662   83.3172   13.6228 C.ar    1  UNL1       -0.0020
     13 C          63.2904   84.2245   12.7582 C.ar    1  UNL1        0.0014
     14 C          63.9060   83.7009   11.4945 C.ar    1  UNL1        0.0023
     15 C          63.6975   82.2701   11.0955 C.ar    1  UNL1        0.0293
     16 C          62.8733   81.3628   11.9601 C.ar    1  UNL1        0.1361
     17 F          62.6648   79.9320   11.5611 F       1  UNL1       -0.2045
     18 C          62.5810   89.6193   10.4812 C.3     1  UNL1        0.1920
     19 C          61.1581   89.2429   10.1919 C.2     1  UNL1        0.2487
     20 O          60.0406   90.1434   10.6283 O.2     1  UNL1       -0.2728
     21 N          60.8526   87.9662    9.4662 N.am    1  UNL1       -0.2778
     22 C          59.5995   87.2774    9.0131 C.3     1  UNL1        0.0952
     23 C          60.4206   86.1606    8.4400 C.3     1  UNL1        0.0430
     24 C          61.6737   86.8495    8.8931 C.3     1  UNL1        0.0952
@<TRIPOS>BOND
     1    10    11    1
     2    11    12   ar
     3    12    13   ar
     4    13     1    1
     5     1     2   ar
     6     2     3   ar
     7     3     4   ar
     8     4     5   ar
     9     5     6   ar
    10     6     7   ar
    11     7    18    1
    12    18    19    1
    13    19    20    2
    14    19    21   am
    15    21    22    1
    16    22    23    1
    17    23    24    1
    18     7     8   ar
    19     8     9   ar
    20    13    14   ar
    21    14    15   ar
    22    15    16   ar
    23    16    17    1
    24    16    11   ar
    25     9     1   ar
    26     8     4   ar
    27    24    21    1
@<TRIPOS>MOLECULE
*****
 24 27 0 0 0
SMALL
GASTEIGER

@<TRIPOS>ATOM
      1 C          62.6438   86.0271   11.9106 C.ar    1  UNL1        0.0206
      2 C          61.8986   86.4563   10.6817 C.ar    1  UNL1        0.0989
      3 N          61.8342   87.9088   10.3127 N.ar    1  UNL1       -0.2423
      4 C          62.5150   88.9320   11.1726 C.ar    1  UNL1        0.0985
      5 C          62.6232   90.4241   11.0624 C.ar    1  UNL1        0.0392
      6 C          63.4352   90.9169   12.2232 C.ar    1  UNL1        0.0779
      7 N          63.8290   89.7295   13.0509 N.ar    1  UNL1       -0.3165
      8 C          63.2602   88.5027   12.4016 C.ar    1  UNL1        0.0782
      9 C          63.3246   87.0503   12.7706 C.ar    1  UNL1        0.0203
     10 C          63.2227   81.0530   10.5236 C.3     1  UNL1        0.0334
     11 C          62.9977   82.0875   11.5862 C.ar    1  UNL1        0.0056
     12 C          62.9333   83.5400   11.2171 C.ar    1  UNL1       -0.0020
     13 C          62.7083   84.5746   12.2797 C.ar    1  UNL1        0.0014
     14 C          62.5476   84.1567   13.7113 C.ar    1  UNL1        0.0023
     15 C          62.6121   82.7043   14.0804 C.ar    1  UNL1        0.0293
     16 C          62.8371   81.6696   13.0178 C.ar    1  UNL1        0.1361
     17 F          62.9015   80.2172   13.3869 F       1  UNL1       -0.2045
     18 C          64.6477   89.7629   14.3073 C.3     1  UNL1        0.1920
     19 C          64.7328   91.0249   15.1137 C.2     1  UNL1        0.2487
     20 O          63.5003   91.5889   15.7562 O.2     1  UNL1       -0.2728
     21 N          66.0504   91.7228   15.2775 N.am    1  UNL1       -0.2778
     22 C          66.5136   92.9618   15.9849 C.3     1  UNL1        0.0952
     23 C          67.9137   92.7098   15.5093 C.3     1  UNL1        0.0430
     24 C          67.4504   91.4708   14.8019 C.3     1  UNL1        0.0952
@<TRIPOS>BOND
     1    10    11    1
     2    11    12   ar
     3    12    13   ar
     4    13     1    1
     5     1     2   ar
     6     2     3   ar
     7     3     4   ar
     8     4     5   ar
     9     5     6   ar
    10     6     7   ar
    11     7    18    1
    12    18    19    1
    13    19    20    2
    14    19    21   am
    15    21    22    1
    16    22    23    1
    17    23    24    1
    18     7     8   ar
    19     8     9   ar
    20    13    14   ar
    21    14    15   ar
    22    15    16   ar
    23    16    17    1
    24    16    11   ar
    25     9     1   ar
    26     8     4   ar
    27    24    21    1
@<TRIPOS>MOLECULE
*****
 24 27 0 0 0
SMALL
GASTEIGER

@<TRIPOS>ATOM
      1 C          63.2157   90.0300   11.8119 C.ar    1  UNL1        0.0206
      2 C          62.4003   90.6949   10.7428 C.ar    1  UNL1        0.0989
      3 N          61.4953   89.8756    9.8713 N.ar    1  UNL1       -0.2423
      4 C          61.4055   88.3914   10.0690 C.ar    1  UNL1        0.0985
      5 C          60.6072   87.3320    9.3685 C.ar    1  UNL1        0.0392
      6 C          60.9293   86.0124   10.0048 C.ar    1  UNL1        0.0779
      7 N          61.9266   86.2562   11.0985 N.ar    1  UNL1       -0.3165
      8 C          62.2209   87.7265   11.1381 C.ar    1  UNL1        0.0782
      9 C          63.1259   88.5458   12.0096 C.ar    1  UNL1        0.0203
     10 C          66.4205   94.0736   12.4276 C.3     1  UNL1        0.0334
     11 C          65.7232   92.8712   12.9913 C.ar    1  UNL1        0.0056
     12 C          64.8181   92.0518   12.1197 C.ar    1  UNL1       -0.0020
     13 C          64.1208   90.8494   12.6835 C.ar    1  UNL1        0.0014
     14 C          64.3286   90.4661   14.1187 C.ar    1  UNL1        0.0023
     15 C          65.2337   91.2854   14.9902 C.ar    1  UNL1        0.0293
     16 C          65.9310   92.4879   14.4265 C.ar    1  UNL1        0.1361
     17 F          66.8361   93.3072   15.2981 F       1  UNL1       -0.2045
     18 C          62.5245   85.2129   11.9951 C.3     1  UNL1        0.1920
     19 C          62.9620   83.8959   11.4256 C.2     1  UNL1        0.2487
     20 O          63.5860   83.8383   10.0628 O.2     1  UNL1       -0.2728
     21 N          62.7756   82.6367   12.2190 N.am    1  UNL1       -0.2778
     22 C          63.0770   81.1850   11.9912 C.3     1  UNL1        0.0952
     23 C          62.5119   80.8558   13.3410 C.3     1  UNL1        0.0430
     24 C          62.2104   82.3074   13.5689 C.3     1  UNL1        0.0952
@<TRIPOS>BOND
     1    10    11    1
     2    11    12   ar
     3    12    13   ar
     4    13     1    1
     5     1     2   ar
     6     2     3   ar
     7     3     4   ar
     8     4     5   ar
     9     5     6   ar
    10     6     7   ar
    11     7    18    1
    12    18    19    1
    13    19    20    2
    14    19    21   am
    15    21    22    1
    16    22    23    1
    17    23    24    1
    18     7     8   ar
    19     8     9   ar
    20    13    14   ar
    21    14    15   ar
    22    15    16   ar
    23    16    17    1
    24    16    11   ar
    25     9     1   ar
    26     8     4   ar
    27    24    21    1
@<TRIPOS>MOLECULE
*****
 24 27 0 0 0
SMALL
GASTEIGER

@<TRIPOS>ATOM
      1 C          62.4114   88.3389   10.7955 C.ar    1  UNL1        0.0206
      2 C          62.1663   89.8134   10.6710 C.ar    1  UNL1        0.0989
      3 N          62.6190   90.7433   11.7574 N.ar    1  UNL1       -0.2423
      4 C          63.3169   90.1986   12.9683 C.ar    1  UNL1        0.0985
      5 C          63.8729   90.8659   14.1913 C.ar    1  UNL1        0.0392
      6 C          64.4617   89.8037   15.0717 C.ar    1  UNL1        0.0779
      7 N          64.2695   88.4800   14.3928 N.ar    1  UNL1       -0.3165
      8 C          63.5620   88.7241   13.0929 C.ar    1  UNL1        0.0782
      9 C          63.1092   87.7942   12.0065 C.ar    1  UNL1        0.0203
     10 C          58.7279   86.7075    7.5136 C.3     1  UNL1        0.0334
     11 C          60.1169   86.5932    8.0681 C.ar    1  UNL1        0.0056
     12 C          60.5696   87.5232    9.1546 C.ar    1  UNL1       -0.0020
     13 C          61.9586   87.4089    9.7091 C.ar    1  UNL1        0.0014
     14 C          62.8950   86.3647    9.1772 C.ar    1  UNL1        0.0023
     15 C          62.4423   85.4348    8.0909 C.ar    1  UNL1        0.0293
     16 C          61.0532   85.5490    7.5363 C.ar    1  UNL1        0.1361
     17 F          60.6005   84.6191    6.4499 F       1  UNL1       -0.2045
     18 C          64.7079   87.1463   14.9210 C.3     1  UNL1        0.1920
     19 C          63.7073   86.2236   15.5515 C.2     1  UNL1        0.2487
     20 O          62.8661   86.7001   16.6983 O.2     1  UNL1       -0.2728
     21 N          63.5479   84.8243   15.0351 N.am    1  UNL1       -0.2778
     22 C          62.6833   83.6527   15.3956 C.3     1  UNL1        0.0952
     23 C          63.3225   82.8454   14.3050 C.3     1  UNL1        0.0430
     24 C          64.1871   84.0170   13.9445 C.3     1  UNL1        0.0952
@<TRIPOS>BOND
     1    10    11    1
     2    11    12   ar
     3    12    13   ar
     4    13     1    1
     5     1     2   ar
     6     2     3   ar
     7     3     4   ar
     8     4     5   ar
     9     5     6   ar
    10     6     7   ar
    11     7    18    1
    12    18    19    1
    13    19    20    2
    14    19    21   am
    15    21    22    1
    16    22    23    1
    17    23    24    1
    18     7     8   ar
    19     8     9   ar
    20    13    14   ar
    21    14    15   ar
    22    15    16   ar
    23    16    17    1
    24    16    11   ar
    25     9     1   ar
    26     8     4   ar
    27    24    21    1
@<TRIPOS>MOLECULE
*****
 24 27 0 0 0
SMALL
GASTEIGER

@<TRIPOS>ATOM
      1 C          62.5896   89.6805   11.6823 C.ar    1  UNL1        0.0206
      2 C          61.5805   90.4650   10.8973 C.ar    1  UNL1        0.0989
      3 N          60.7538   89.7844    9.8470 N.ar    1  UNL1       -0.2423
      4 C          60.9362   88.3194    9.5815 C.ar    1  UNL1        0.0985
      5 C          60.2704   87.3837    8.6164 C.ar    1  UNL1        0.0392
      6 C          60.8682   86.0210    8.8049 C.ar    1  UNL1        0.0779
      7 N          61.9033   86.1144    9.8865 N.ar    1  UNL1       -0.3165
      8 C          61.9453   87.5349   10.3665 C.ar    1  UNL1        0.0782
      9 C          62.7720   88.2154   11.4169 C.ar    1  UNL1        0.0203
     10 C          63.6823   90.5454   16.6881 C.3     1  UNL1        0.0334
     11 C          63.9628   90.7934   15.2357 C.ar    1  UNL1        0.0056
     12 C          63.1360   90.1129   14.1852 C.ar    1  UNL1       -0.0020
     13 C          63.4165   90.3610   12.7327 C.ar    1  UNL1        0.0014
     14 C          64.5237   91.2896   12.3306 C.ar    1  UNL1        0.0023
     15 C          65.3505   91.9701   13.3809 C.ar    1  UNL1        0.0293
     16 C          65.0701   91.7220   14.8335 C.ar    1  UNL1        0.1361
     17 F          65.8969   92.4025   15.8839 F       1  UNL1       -0.2045
     18 C          62.7481   84.9855   10.3983 C.3     1  UNL1        0.1920
     19 C          62.5138   84.4377   11.7750 C.2     1  UNL1        0.2487
     20 O          62.1169   85.3582   12.8909 O.2     1  UNL1       -0.2728
     21 N          62.6763   82.9696   12.0356 N.am    1  UNL1       -0.2778
     22 C          62.5336   82.0835   13.2376 C.3     1  UNL1        0.0952
     23 C          62.9062   80.8932   12.4044 C.3     1  UNL1        0.0430
     24 C          63.0489   81.7793   11.2024 C.3     1  UNL1        0.0952
@<TRIPOS>BOND
     1    10    11    1
     2    11    12   ar
     3    12    13   ar
     4    13     1    1
     5     1     2   ar
     6     2     3   ar
     7     3     4   ar
     8     4     5   ar
     9     5     6   ar
    10     6     7   ar
    11     7    18    1
    12    18    19    1
    13    19    20    2
    14    19    21   am
    15    21    22    1
    16    22    23    1
    17    23    24    1
    18     7     8   ar
    19     8     9   ar
    20    13    14   ar
    21    14    15   ar
    22    15    16   ar
    23    16    17    1
    24    16    11   ar
    25     9     1   ar
    26     8     4   ar
    27    24    21    1
@<TRIPOS>MOLECULE
*****
 24 27 0 0 0
SMALL
GASTEIGER

@<TRIPOS>ATOM
      1 C          65.8789   92.4866   12.3448 C.ar    1  UNL1        0.0206
      2 C          66.5851   92.4542   13.6677 C.ar    1  UNL1        0.0989
      3 N          66.0224   91.6453   14.7986 N.ar    1  UNL1       -0.2423
      4 C          64.7535   90.8688   14.6066 C.ar    1  UNL1        0.0985
      5 C          63.9660   89.9882   15.5311 C.ar    1  UNL1        0.0392
      6 C          62.7731   89.4764   14.7794 C.ar    1  UNL1        0.0779
      7 N          62.8233   90.0407   13.3905 N.ar    1  UNL1       -0.3165
      8 C          64.0473   90.9012   13.2837 C.ar    1  UNL1        0.0782
      9 C          64.6100   91.7101   12.1528 C.ar    1  UNL1        0.0203
     10 C          65.9423   96.8558    9.5328 C.3     1  UNL1        0.0334
     11 C          66.4733   95.4801    9.8078 C.ar    1  UNL1        0.0056
     12 C          65.9106   94.6712   10.9388 C.ar    1  UNL1       -0.0020
     13 C          66.4416   93.2956   11.2138 C.ar    1  UNL1        0.0014
     14 C          67.5353   92.7288   10.3579 C.ar    1  UNL1        0.0023
     15 C          68.0980   93.5377    9.2270 C.ar    1  UNL1        0.0293
     16 C          67.5670   94.9134    8.9519 C.ar    1  UNL1        0.1361
     17 F          68.1297   95.7222    7.8210 F       1  UNL1       -0.2045
     18 C          61.8249   89.7886   12.2998 C.3     1  UNL1        0.1920
     19 C          61.9132   88.5378   11.4766 C.2     1  UNL1        0.2487
     20 O          62.7848   87.4033   11.9272 O.2     1  UNL1       -0.2728
     21 N          61.1298   88.4215   10.2027 N.am    1  UNL1       -0.2778
     22 C          60.9678   87.3655    9.1498 C.3     1  UNL1        0.0952
     23 C          60.0221   88.2570    8.4011 C.3     1  UNL1        0.0430
     24 C          60.1841   89.3131    9.4540 C.3     1  UNL1        0.0952
@<TRIPOS>BOND
     1    10    11    1
     2    11    12   ar
     3    12    13   ar
     4    13     1    1
     5     1     2   ar
     6     2     3   ar
     7     3     4   ar
     8     4     5   ar
     9     5     6   ar
    10     6     7   ar
    11     7    18    1
    12    18    19    1
    13    19    20    2
    14    19    21   am
    15    21    22    1
    16    22    23    1
    17    23    24    1
    18     7     8   ar
    19     8     9   ar
    20    13    14   ar
    21    14    15   ar
    22    15    16   ar
    23    16    17    1
    24    16    11   ar
    25     9     1   ar
    26     8     4   ar
    27    24    21    1
@<TRIPOS>MOLECULE
*****
 24 27 0 0 0
SMALL
GASTEIGER

@<TRIPOS>ATOM
      1 C          63.9384   86.6285   14.5916 C.ar    1  UNL1        0.0206
      2 C          64.3701   85.5107   15.4939 C.ar    1  UNL1        0.0989
      3 N          64.3529   84.0959   14.9961 N.ar    1  UNL1       -0.2423
      4 C          63.9039   83.7988   13.5961 C.ar    1  UNL1        0.0985
      5 C          63.7814   82.5132   12.8328 C.ar    1  UNL1        0.0392
      6 C          63.2739   82.8365   11.4588 C.ar    1  UNL1        0.0779
      7 N          63.0828   84.3219   11.3729 N.ar    1  UNL1       -0.3165
      8 C          63.4722   84.9165   12.6938 C.ar    1  UNL1        0.0782
      9 C          63.4894   86.3314   13.1915 C.ar    1  UNL1        0.0203
     10 C          65.3636   91.5902   13.9995 C.3     1  UNL1        0.0334
     11 C          64.6682   90.5243   14.7933 C.ar    1  UNL1        0.0056
     12 C          64.6510   89.1093   14.2955 C.ar    1  UNL1       -0.0020
     13 C          63.9556   88.0434   15.0893 C.ar    1  UNL1        0.0014
     14 C          63.2773   88.3924   16.3809 C.ar    1  UNL1        0.0023
     15 C          63.2945   89.8073   16.8787 C.ar    1  UNL1        0.0293
     16 C          63.9900   90.8733   16.0849 C.ar    1  UNL1        0.1361
     17 F          64.0071   92.2881   16.5826 F       1  UNL1       -0.2045
     18 C          62.5890   85.0795   10.1762 C.3     1  UNL1        0.1920
     19 C          61.3816   85.9619   10.2929 C.2     1  UNL1        0.2487
     20 O          61.0021   86.5416   11.6233 O.2     1  UNL1       -0.2728
     21 N          60.5537   86.2645    9.0793 N.am    1  UNL1       -0.2778
     22 C          59.3204   87.0755    8.8119 C.3     1  UNL1        0.0952
     23 C          59.3827   86.6926    7.3630 C.3     1  UNL1        0.0430
     24 C          60.6161   85.8817    7.6304 C.3     1  UNL1        0.0952
@<TRIPOS>BOND
     1    10    11    1
     2    11    12   ar
     3    12    13   ar
     4    13     1    1
     5     1     2   ar
     6     2     3   ar
     7     3     4   ar
     8     4     5   ar
     9     5     6   ar
    10     6     7   ar
    11     7    18    1
    12    18    19    1
    13    19    20    2
    14    19    21   am
    15    21    22    1
    16    22    23    1
    17    23    24    1
    18     7     8   ar
    19     8     9   ar
    20    13    14   ar
    21    14    15   ar
    22    15    16   ar
    23    16    17    1
    24    16    11   ar
    25     9     1   ar
    26     8     4   ar
    27    24    21    1
