@<TRIPOS>MOLECULE
*****
 29 31 0 0 0
SMALL
GASTEIGER

@<TRIPOS>ATOM
      1 C          64.1900   89.4079   13.6411 C.ar    1  UNL1        0.0534
      2 C          63.4129   88.9921   12.4273 C.ar    1  UNL1        0.0045
      3 C          62.9768   87.5658   12.2682 C.ar    1  UNL1        0.0001
      4 C          63.3178   86.5552   13.3228 C.ar    1  UNL1       -0.0002
      5 C          62.8818   85.1288   13.1637 C.ar    1  UNL1       -0.0017
      6 C          63.2228   84.1182   14.2183 C.ar    1  UNL1        0.0070
      7 C          63.9999   84.5339   15.4322 C.ar    1  UNL1       -0.0017
      8 C          64.4360   85.9603   15.5913 C.ar    1  UNL1       -0.0002
      9 C          64.0949   86.9709   14.5366 C.ar    1  UNL1        0.0001
     10 C          64.5310   88.3973   14.6957 C.ar    1  UNL1        0.0045
     11 N          65.7285   91.1792   14.7570 N.am    1  UNL1       -0.3009
     12 C          64.6260   90.8343   13.8002 C.2     1  UNL1        0.2458
     13 O          63.9597   91.9157   13.0025 O.2     1  UNL1       -0.2701
     14 H          66.1659   90.4694   15.2806 H       1  UNL1        0.1497
     15 C          66.1646   92.6056   14.9161 C.3     1  UNL1        0.0897
     16 C          68.5112   92.3303   15.9967 C.3     1  UNL1        0.0018
     17 C          67.1558   92.9725   15.9806 C.3     1  UNL1        0.0213
     18 C          62.7867   82.6918   14.0592 C.3     1  UNL1        0.1410
     19 O          62.2314   82.7061   15.4526 O.3     1  UNL1       -0.3771
     20 H          62.3776   83.5789   15.8499 H       1  UNL1        0.2112
     21 C          63.3420   82.6775   12.6659 C.ar    1  UNL1        0.0825
     22 C          64.7840   82.8481   12.2897 C.ar    1  UNL1        0.1157
     23 N          64.8861   82.7661   10.7955 N.ar    1  UNL1       -0.2228
     24 C          63.5071   82.5447   10.2481 C.ar    1  UNL1        0.1749
     25 N          62.5529   82.4899   11.4042 N.ar    1  UNL1       -0.3361
     26 H          61.5795   82.3547   11.3452 H       1  UNL1        0.1673
     27 C          62.3506   81.2654   13.9001 C.3     1  UNL1        0.0340
     28 C          60.8954   80.9121   13.9851 C.3     1  UNL1        0.0031
     29 C          63.3700   80.1923   13.6560 C.3     1  UNL1        0.0031
@<TRIPOS>BOND
     1    16    17    1
     2    17    15    1
     3    15    11    1
     4    11    12   am
     5    12    13    2
     6    12     1    1
     7     1     2   ar
     8     2     3   ar
     9     3     4   ar
    10     4     5   ar
    11     5     6   ar
    12     6    18    1
    13    18    19    1
    14    18    21    1
    15    21    22   ar
    16    22    23   ar
    17    23    24   ar
    18    24    25   ar
    19    18    27    1
    20    27    28    1
    21    27    29    1
    22     6     7   ar
    23     7     8   ar
    24     8     9   ar
    25     9    10   ar
    26    10     1   ar
    27     9     4   ar
    28    25    21   ar
    29    11    14    1
    30    19    20    1
    31    25    26    1
@<TRIPOS>MOLECULE
*****
 29 31 0 0 0
SMALL
GASTEIGER

@<TRIPOS>ATOM
      1 C          64.1579   89.5231   14.0533 C.ar    1  UNL1        0.0534
      2 C          63.4819   89.5516   12.7146 C.ar    1  UNL1        0.0045
      3 C          63.7478   90.6810   11.7639 C.ar    1  UNL1        0.0001
      4 C          64.6897   91.7819   12.1520 C.ar    1  UNL1       -0.0002
      5 C          64.9556   92.9113   11.2013 C.ar    1  UNL1       -0.0017
      6 C          65.8975   94.0123   11.5894 C.ar    1  UNL1        0.0070
      7 C          66.5736   93.9839   12.9281 C.ar    1  UNL1       -0.0017
      8 C          66.3077   92.8545   13.8788 C.ar    1  UNL1       -0.0002
      9 C          65.3657   91.7535   13.4907 C.ar    1  UNL1        0.0001
     10 C          65.0998   90.6241   14.4413 C.ar    1  UNL1        0.0045
     11 N          64.2448   86.9883   14.6163 N.am    1  UNL1       -0.3009
     12 C          63.8920   88.3937   15.0039 C.2     1  UNL1        0.2458
     13 O          63.2733   88.6697   16.3422 O.2     1  UNL1       -0.2701
     14 H          64.6508   86.8071   13.7380 H       1  UNL1        0.1497
     15 C          63.9789   85.8589   15.5670 C.3     1  UNL1        0.0897
     16 C          64.5119   84.1337   13.6989 C.3     1  UNL1        0.0018
     17 C          64.2320   84.4435   15.1396 C.3     1  UNL1        0.0213
     18 C          66.1634   95.1417   10.6387 C.3     1  UNL1        0.1410
     19 O          65.2438   96.0240   11.4297 O.3     1  UNL1       -0.3771
     20 H          64.8834   95.5256   12.1798 H       1  UNL1        0.2112
     21 C          67.0831   94.2594    9.8477 C.ar    1  UNL1        0.0825
     22 C          67.2444   94.2656    8.3565 C.ar    1  UNL1        0.1157
     23 N          68.2639   93.2260    7.9962 N.ar    1  UNL1       -0.2228
     24 C          68.7328   92.5773    9.2649 C.ar    1  UNL1        0.1749
     25 N          68.0029   93.2160   10.4092 N.ar    1  UNL1       -0.3361
     26 H          68.1090   92.9901   11.3615 H       1  UNL1        0.1673
     27 C          66.4294   96.2711    9.6881 C.3     1  UNL1        0.0340
     28 C          67.8081   96.8519    9.5803 C.3     1  UNL1        0.0031
     29 C          65.3164   96.8197    8.8451 C.3     1  UNL1        0.0031
@<TRIPOS>BOND
     1    16    17    1
     2    17    15    1
     3    15    11    1
     4    11    12   am
     5    12    13    2
     6    12     1    1
     7     1     2   ar
     8     2     3   ar
     9     3     4   ar
    10     4     5   ar
    11     5     6   ar
    12     6    18    1
    13    18    19    1
    14    18    21    1
    15    21    22   ar
    16    22    23   ar
    17    23    24   ar
    18    24    25   ar
    19    18    27    1
    20    27    28    1
    21    27    29    1
    22     6     7   ar
    23     7     8   ar
    24     8     9   ar
    25     9    10   ar
    26    10     1   ar
    27     9     4   ar
    28    25    21   ar
    29    11    14    1
    30    19    20    1
    31    25    26    1
@<TRIPOS>MOLECULE
*****
 29 31 0 0 0
SMALL
GASTEIGER

@<TRIPOS>ATOM
      1 C          65.2306   91.0751   14.1278 C.ar    1  UNL1        0.0534
      2 C          64.6178   89.7912   14.6031 C.ar    1  UNL1        0.0045
      3 C          63.6190   89.0737   13.7442 C.ar    1  UNL1        0.0001
      4 C          63.2329   89.6403   12.4101 C.ar    1  UNL1       -0.0002
      5 C          62.2340   88.9229   11.5513 C.ar    1  UNL1       -0.0017
      6 C          61.8480   89.4894   10.2171 C.ar    1  UNL1        0.0070
      7 C          62.4608   90.7734    9.7418 C.ar    1  UNL1       -0.0017
      8 C          63.4596   91.4908   10.6006 C.ar    1  UNL1       -0.0002
      9 C          63.8457   90.9242   11.9348 C.ar    1  UNL1        0.0001
     10 C          64.8446   91.6416   12.7936 C.ar    1  UNL1        0.0045
     11 N          67.6324   91.2736   15.0982 N.am    1  UNL1       -0.3009
     12 C          66.2295   91.7925   14.9866 C.2     1  UNL1        0.2458
     13 O          65.8254   93.0287   15.7338 O.2     1  UNL1       -0.2701
     14 H          67.8977   90.4622   14.6078 H       1  UNL1        0.1497
     15 C          68.6313   91.9910   15.9571 C.3     1  UNL1        0.0897
     16 C          69.0482   94.5465   16.1717 C.3     1  UNL1        0.0018
     17 C          69.2830   93.2473   15.4597 C.3     1  UNL1        0.0213
     18 C          60.8491   88.7720    9.3583 C.3     1  UNL1        0.1410
     19 O          60.2788   90.0888    8.9216 O.3     1  UNL1       -0.3771
     20 H          60.7649   90.8101    9.3511 H       1  UNL1        0.2112
     21 C          61.4194   87.4552    9.7950 C.ar    1  UNL1        0.0825
     22 C          62.3935   86.6165    9.0221 C.ar    1  UNL1        0.1157
     23 N          62.6919   85.3888    9.8307 N.ar    1  UNL1       -0.2228
     24 C          61.9020   85.4688   11.1034 C.ar    1  UNL1        0.1749
     25 N          61.1156   86.7459   11.0813 N.ar    1  UNL1       -0.3361
     26 H          60.5069   87.0630   11.7871 H       1  UNL1        0.1673
     27 C          59.8502   88.0546    8.4995 C.3     1  UNL1        0.0340
     28 C          59.4330   88.6422    7.1840 C.3     1  UNL1        0.0031
     29 C          59.2686   86.7495    8.9562 C.3     1  UNL1        0.0031
@<TRIPOS>BOND
     1    16    17    1
     2    17    15    1
     3    15    11    1
     4    11    12   am
     5    12    13    2
     6    12     1    1
     7     1     2   ar
     8     2     3   ar
     9     3     4   ar
    10     4     5   ar
    11     5     6   ar
    12     6    18    1
    13    18    19    1
    14    18    21    1
    15    21    22   ar
    16    22    23   ar
    17    23    24   ar
    18    24    25   ar
    19    18    27    1
    20    27    28    1
    21    27    29    1
    22     6     7   ar
    23     7     8   ar
    24     8     9   ar
    25     9    10   ar
    26    10     1   ar
    27     9     4   ar
    28    25    21   ar
    29    11    14    1
    30    19    20    1
    31    25    26    1
@<TRIPOS>MOLECULE
*****
 29 31 0 0 0
SMALL
GASTEIGER

@<TRIPOS>ATOM
      1 C          64.2122   89.7352   13.3529 C.ar    1  UNL1        0.0534
      2 C          64.7414   89.1580   14.6322 C.ar    1  UNL1        0.0045
      3 C          64.5262   87.7070   14.9460 C.ar    1  UNL1        0.0001
      4 C          63.7818   86.8333   13.9804 C.ar    1  UNL1       -0.0002
      5 C          63.5667   85.3823   14.2942 C.ar    1  UNL1       -0.0017
      6 C          62.8223   84.5086   13.3286 C.ar    1  UNL1        0.0070
      7 C          62.2930   85.0858   12.0492 C.ar    1  UNL1       -0.0017
      8 C          62.5081   86.5367   11.7354 C.ar    1  UNL1       -0.0002
      9 C          63.2526   87.4105   12.7011 C.ar    1  UNL1        0.0001
     10 C          63.4678   88.8614   12.3873 C.ar    1  UNL1        0.0045
     11 N          65.7335   91.8411   13.3780 N.am    1  UNL1       -0.3009
     12 C          64.4274   91.1861   13.0391 C.2     1  UNL1        0.2458
     13 O          63.3364   91.9821   12.3864 O.2     1  UNL1       -0.2701
     14 H          66.4496   91.3186   13.8064 H       1  UNL1        0.1497
     15 C          65.9487   93.2920   13.0643 C.3     1  UNL1        0.0897
     16 C          66.8259   92.7713   10.6748 C.3     1  UNL1        0.0018
     17 C          66.2007   93.7242   11.6501 C.3     1  UNL1        0.0213
     18 C          62.6071   83.0576   13.6424 C.3     1  UNL1        0.1410
     19 O          61.9661   83.4344   14.9452 O.3     1  UNL1       -0.3771
     20 H          61.9591   84.4002   15.0347 H       1  UNL1        0.2112
     21 C          63.2480   82.6808   12.3396 C.ar    1  UNL1        0.0825
     22 C          64.5970   83.1273   11.8591 C.ar    1  UNL1        0.1157
     23 N          64.8352   82.5139   10.5112 N.ar    1  UNL1       -0.2228
     24 C          63.6335   81.6883   10.1587 C.ar    1  UNL1        0.1749
     25 N          62.6526   81.7915   11.2888 N.ar    1  UNL1       -0.3361
     26 H          61.7724   81.3526   11.3330 H       1  UNL1        0.1673
     27 C          62.3919   81.6067   13.9562 C.3     1  UNL1        0.0340
     28 C          63.5685   80.6867   14.0941 C.3     1  UNL1        0.0031
     29 C          61.0000   81.0758   14.1320 C.3     1  UNL1        0.0031
@<TRIPOS>BOND
     1    16    17    1
     2    17    15    1
     3    15    11    1
     4    11    12   am
     5    12    13    2
     6    12     1    1
     7     1     2   ar
     8     2     3   ar
     9     3     4   ar
    10     4     5   ar
    11     5     6   ar
    12     6    18    1
    13    18    19    1
    14    18    21    1
    15    21    22   ar
    16    22    23   ar
    17    23    24   ar
    18    24    25   ar
    19    18    27    1
    20    27    28    1
    21    27    29    1
    22     6     7   ar
    23     7     8   ar
    24     8     9   ar
    25     9    10   ar
    26    10     1   ar
    27     9     4   ar
    28    25    21   ar
    29    11    14    1
    30    19    20    1
    31    25    26    1
@<TRIPOS>MOLECULE
*****
 29 31 0 0 0
SMALL
GASTEIGER

@<TRIPOS>ATOM
      1 C          61.6040   88.4935   10.0876 C.ar    1  UNL1        0.0534
      2 C          61.7958   89.8689    9.5209 C.ar    1  UNL1        0.0045
      3 C          62.6608   90.8621   10.2388 C.ar    1  UNL1        0.0001
      4 C          63.3339   90.4798   11.5236 C.ar    1  UNL1       -0.0002
      5 C          64.1989   91.4729   12.2416 C.ar    1  UNL1       -0.0017
      6 C          64.8721   91.0906   13.5263 C.ar    1  UNL1        0.0070
      7 C          64.6803   89.7151   14.0932 C.ar    1  UNL1       -0.0017
      8 C          63.8154   88.7219   13.3752 C.ar    1  UNL1       -0.0002
      9 C          63.1422   89.1043   12.0904 C.ar    1  UNL1        0.0001
     10 C          62.2772   88.1111   11.3724 C.ar    1  UNL1        0.0045
     11 N          61.3524   86.5353    8.3987 N.am    1  UNL1       -0.3009
     12 C          60.7391   87.5003    9.3697 C.2     1  UNL1        0.2458
     13 O          59.2609   87.4721    9.6226 O.2     1  UNL1       -0.2701
     14 H          62.3226   86.5538    8.2327 H       1  UNL1        0.1497
     15 C          60.4874   85.5422    7.6808 C.3     1  UNL1        0.0897
     16 C          62.4737   84.4855    6.3814 C.3     1  UNL1        0.0018
     17 C          61.0148   84.8214    6.4756 C.3     1  UNL1        0.0213
     18 C          65.7370   92.0838   14.2443 C.3     1  UNL1        0.1410
     19 O          64.8557   91.9772   15.4534 O.3     1  UNL1       -0.3771
     20 H          64.1384   91.3487   15.2763 H       1  UNL1        0.2112
     21 C          66.6183   92.1904   13.0352 C.ar    1  UNL1        0.0825
     22 C          68.0068   91.6381   12.9048 C.ar    1  UNL1        0.1157
     23 N          68.5124   91.9743   11.5332 N.ar    1  UNL1       -0.2228
     24 C          67.4364   92.7344   10.8160 C.ar    1  UNL1        0.1749
     25 N          66.2658   92.8679   11.7443 N.ar    1  UNL1       -0.3361
     26 H          65.4154   93.3208   11.5418 H       1  UNL1        0.1673
     27 C          66.6020   93.0769   14.9623 C.3     1  UNL1        0.0340
     28 C          67.1553   92.7483   16.3172 C.3     1  UNL1        0.0031
     29 C          66.9136   94.3988   14.3253 C.3     1  UNL1        0.0031
@<TRIPOS>BOND
     1    16    17    1
     2    17    15    1
     3    15    11    1
     4    11    12   am
     5    12    13    2
     6    12     1    1
     7     1     2   ar
     8     2     3   ar
     9     3     4   ar
    10     4     5   ar
    11     5     6   ar
    12     6    18    1
    13    18    19    1
    14    18    21    1
    15    21    22   ar
    16    22    23   ar
    17    23    24   ar
    18    24    25   ar
    19    18    27    1
    20    27    28    1
    21    27    29    1
    22     6     7   ar
    23     7     8   ar
    24     8     9   ar
    25     9    10   ar
    26    10     1   ar
    27     9     4   ar
    28    25    21   ar
    29    11    14    1
    30    19    20    1
    31    25    26    1
@<TRIPOS>MOLECULE
*****
 29 31 0 0 0
SMALL
GASTEIGER

@<TRIPOS>ATOM
      1 C          65.5420   91.7707   14.5377 C.ar    1  UNL1        0.0534
      2 C          64.9745   90.5349   15.1709 C.ar    1  UNL1        0.0045
      3 C          64.0628   89.6403   14.3845 C.ar    1  UNL1        0.0001
      4 C          63.7186   89.9813   12.9650 C.ar    1  UNL1       -0.0002
      5 C          62.8069   89.0867   12.1786 C.ar    1  UNL1       -0.0017
      6 C          62.4626   89.4277   10.7591 C.ar    1  UNL1        0.0070
      7 C          63.0301   90.6635   10.1259 C.ar    1  UNL1       -0.0017
      8 C          63.9417   91.5582   10.9122 C.ar    1  UNL1       -0.0002
      9 C          64.2860   91.2171   12.3318 C.ar    1  UNL1        0.0001
     10 C          65.1977   92.1117   13.1182 C.ar    1  UNL1        0.0045
     11 N          67.5340   93.4363   14.6252 N.am    1  UNL1       -0.3009
     12 C          66.4537   92.6653   15.3241 C.2     1  UNL1        0.2458
     13 O          66.2850   92.7891   16.8094 O.2     1  UNL1       -0.2701
     14 H          67.6446   93.3551   13.6503 H       1  UNL1        0.1497
     15 C          68.4456   94.3309   15.4115 C.3     1  UNL1        0.0897
     16 C          69.6766   92.2916   16.4487 C.3     1  UNL1        0.0018
     17 C          69.6368   93.7540   16.1176 C.3     1  UNL1        0.0213
     18 C          61.5509   88.5331    9.9727 C.3     1  UNL1        0.1410
     19 O          62.7141   88.0778    9.1421 O.3     1  UNL1       -0.3771
     20 H          63.5206   88.5252    9.4425 H       1  UNL1        0.2112
     21 C          60.3878   88.9883   10.8033 C.ar    1  UNL1        0.0825
     22 C          59.8002   90.3682   10.8163 C.ar    1  UNL1        0.1157
     23 N          58.6573   90.3763   11.7877 N.ar    1  UNL1       -0.2228
     24 C          58.5386   89.0012   12.3751 C.ar    1  UNL1        0.1749
     25 N          59.6082   88.1434   11.7667 N.ar    1  UNL1       -0.3361
     26 H          59.7700   87.1927   11.9649 H       1  UNL1        0.1673
     27 C          60.6392   87.6384    9.1863 C.3     1  UNL1        0.0340
     28 C          60.7416   86.1490    9.3316 C.3     1  UNL1        0.0031
     29 C          59.6252   88.2332    8.2546 C.3     1  UNL1        0.0031
@<TRIPOS>BOND
     1    16    17    1
     2    17    15    1
     3    15    11    1
     4    11    12   am
     5    12    13    2
     6    12     1    1
     7     1     2   ar
     8     2     3   ar
     9     3     4   ar
    10     4     5   ar
    11     5     6   ar
    12     6    18    1
    13    18    19    1
    14    18    21    1
    15    21    22   ar
    16    22    23   ar
    17    23    24   ar
    18    24    25   ar
    19    18    27    1
    20    27    28    1
    21    27    29    1
    22     6     7   ar
    23     7     8   ar
    24     8     9   ar
    25     9    10   ar
    26    10     1   ar
    27     9     4   ar
    28    25    21   ar
    29    11    14    1
    30    19    20    1
    31    25    26    1
@<TRIPOS>MOLECULE
*****
 29 31 0 0 0
SMALL
GASTEIGER

@<TRIPOS>ATOM
      1 C          60.2717   88.6032    8.5799 C.ar    1  UNL1        0.0534
      2 C          60.8741   89.7009    9.4057 C.ar    1  UNL1        0.0045
      3 C          61.7173   89.3647   10.5998 C.ar    1  UNL1        0.0001
      4 C          61.9581   87.9308   10.9681 C.ar    1  UNL1       -0.0002
      5 C          62.8014   87.5946   12.1623 C.ar    1  UNL1       -0.0017
      6 C          63.0422   86.1606   12.5306 C.ar    1  UNL1        0.0070
      7 C          62.4398   85.0628   11.7048 C.ar    1  UNL1       -0.0017
      8 C          61.5966   85.3990   10.5107 C.ar    1  UNL1       -0.0002
      9 C          61.3557   86.8330   10.1423 C.ar    1  UNL1        0.0001
     10 C          60.5125   87.1692    8.9482 C.ar    1  UNL1        0.0045
     11 N          59.7447   90.1522    6.5618 N.am    1  UNL1       -0.3009
     12 C          59.4284   88.9394    7.3858 C.2     1  UNL1        0.2458
     13 O          58.2690   88.0627    7.0156 O.2     1  UNL1       -0.2701
     14 H          60.5057   90.7276    6.8048 H       1  UNL1        0.1497
     15 C          58.9014   90.4884    5.3677 C.3     1  UNL1        0.0897
     16 C          59.6357   92.4738    3.8613 C.3     1  UNL1        0.0018
     17 C          58.7490   91.9167    4.9353 C.3     1  UNL1        0.0213
     18 C          63.8854   85.8244   13.7247 C.3     1  UNL1        0.1410
     19 O          63.9928   87.2826   14.0595 O.3     1  UNL1       -0.3771
     20 H          63.5018   87.8019   13.4036 H       1  UNL1        0.2112
     21 C          63.7781   84.3662   13.3899 C.ar    1  UNL1        0.0825
     22 C          62.7625   83.4082   13.9382 C.ar    1  UNL1        0.1157
     23 N          63.0243   82.0599   13.3352 N.ar    1  UNL1       -0.2228
     24 C          64.2017   82.1847   12.4144 C.ar    1  UNL1        0.1749
     25 N          64.6676   83.6101   12.4482 N.ar    1  UNL1       -0.3361
     26 H          65.4244   83.9837   11.9413 H       1  UNL1        0.1673
     27 C          64.7287   85.4882   14.9188 C.3     1  UNL1        0.0340
     28 C          64.1268   85.5117   16.2926 C.3     1  UNL1        0.0031
     29 C          66.1738   85.1285   14.7392 C.3     1  UNL1        0.0031
@<TRIPOS>BOND
     1    16    17    1
     2    17    15    1
     3    15    11    1
     4    11    12   am
     5    12    13    2
     6    12     1    1
     7     1     2   ar
     8     2     3   ar
     9     3     4   ar
    10     4     5   ar
    11     5     6   ar
    12     6    18    1
    13    18    19    1
    14    18    21    1
    15    21    22   ar
    16    22    23   ar
    17    23    24   ar
    18    24    25   ar
    19    18    27    1
    20    27    28    1
    21    27    29    1
    22     6     7   ar
    23     7     8   ar
    24     8     9   ar
    25     9    10   ar
    26    10     1   ar
    27     9     4   ar
    28    25    21   ar
    29    11    14    1
    30    19    20    1
    31    25    26    1
@<TRIPOS>MOLECULE
*****
 29 31 0 0 0
SMALL
GASTEIGER

@<TRIPOS>ATOM
      1 C          63.2717   85.7287   13.3598 C.ar    1  UNL1        0.0534
      2 C          64.1795   85.7267   14.5538 C.ar    1  UNL1        0.0045
      3 C          64.8587   86.9938   14.9818 C.ar    1  UNL1        0.0001
      4 C          64.6301   88.2629   14.2158 C.ar    1  UNL1       -0.0002
      5 C          65.3093   89.5300   14.6437 C.ar    1  UNL1       -0.0017
      6 C          65.0806   90.7992   13.8777 C.ar    1  UNL1        0.0070
      7 C          64.1728   90.8013   12.6835 C.ar    1  UNL1       -0.0017
      8 C          63.4936   89.5342   12.2555 C.ar    1  UNL1       -0.0002
      9 C          63.7223   88.2650   13.0217 C.ar    1  UNL1        0.0001
     10 C          63.0431   86.9979   12.5937 C.ar    1  UNL1        0.0045
     11 N          62.5650   83.2776   13.8523 N.am    1  UNL1       -0.3009
     12 C          62.5925   84.4616   12.9318 C.2     1  UNL1        0.2458
     13 O          61.9409   84.3786   11.5834 O.2     1  UNL1       -0.2701
     14 H          62.9927   83.3322   14.7373 H       1  UNL1        0.1497
     15 C          61.8858   82.0105   13.4243 C.3     1  UNL1        0.0897
     16 C          63.0691   81.1700   11.2694 C.3     1  UNL1        0.0018
     17 C          62.6615   80.9528   12.6965 C.3     1  UNL1        0.0213
     18 C          65.7598   92.0663   14.3056 C.3     1  UNL1        0.1410
     19 O          64.9675   92.0608   15.5793 O.3     1  UNL1       -0.3771
     20 H          64.3826   91.2871   15.5929 H       1  UNL1        0.2112
     21 C          66.5521   92.0718   13.0320 C.ar    1  UNL1        0.0825
     22 C          67.9845   91.6523   12.8829 C.ar    1  UNL1        0.1157
     23 N          68.3688   91.8190   11.4426 N.ar    1  UNL1       -0.2228
     24 C          67.1739   92.3416   10.7015 C.ar    1  UNL1        0.1749
     25 N          66.0511   92.4978   11.6839 N.ar    1  UNL1       -0.3361
     26 H          65.1445   92.8228   11.4797 H       1  UNL1        0.1673
     27 C          66.4390   93.3334   14.7336 C.3     1  UNL1        0.0340
     28 C          66.3921   94.5447   13.8502 C.3     1  UNL1        0.0031
     29 C          67.1650   93.3891   16.0451 C.3     1  UNL1        0.0031
@<TRIPOS>BOND
     1    16    17    1
     2    17    15    1
     3    15    11    1
     4    11    12   am
     5    12    13    2
     6    12     1    1
     7     1     2   ar
     8     2     3   ar
     9     3     4   ar
    10     4     5   ar
    11     5     6   ar
    12     6    18    1
    13    18    19    1
    14    18    21    1
    15    21    22   ar
    16    22    23   ar
    17    23    24   ar
    18    24    25   ar
    19    18    27    1
    20    27    28    1
    21    27    29    1
    22     6     7   ar
    23     7     8   ar
    24     8     9   ar
    25     9    10   ar
    26    10     1   ar
    27     9     4   ar
    28    25    21   ar
    29    11    14    1
    30    19    20    1
    31    25    26    1
@<TRIPOS>MOLECULE
*****
 29 31 0 0 0
SMALL
GASTEIGER

@<TRIPOS>ATOM
      1 C          63.3845   82.5325   13.5709 C.ar    1  UNL1        0.0534
      2 C          64.1169   83.0201   14.7857 C.ar    1  UNL1        0.0045
      3 C          64.3495   84.4889   14.9820 C.ar    1  UNL1        0.0001
      4 C          63.8497   85.4701   13.9635 C.ar    1  UNL1       -0.0002
      5 C          64.0822   86.9389   14.1597 C.ar    1  UNL1       -0.0017
      6 C          63.5824   87.9201   13.1412 C.ar    1  UNL1        0.0070
      7 C          62.8500   87.4325   11.9264 C.ar    1  UNL1       -0.0017
      8 C          62.6174   85.9637   11.7301 C.ar    1  UNL1       -0.0002
      9 C          63.1173   84.9825   12.7487 C.ar    1  UNL1        0.0001
     10 C          62.8847   83.5137   12.5524 C.ar    1  UNL1        0.0045
     11 N          62.7633   80.5398   12.0239 N.am    1  UNL1       -0.3009
     12 C          63.1520   81.0637   13.3746 C.2     1  UNL1        0.2458
     13 O          63.3081   80.1187   14.5290 O.2     1  UNL1       -0.2701
     14 H          62.6609   81.1600   11.2662 H       1  UNL1        0.1497
     15 C          62.5308   79.0710   11.8276 C.3     1  UNL1        0.0897
     16 C          62.7731   79.3085    9.2517 C.3     1  UNL1        0.0018
     17 C          62.7561   78.4493   10.4811 C.3     1  UNL1        0.0213
     18 C          63.8149   89.3889   13.3375 C.3     1  UNL1        0.1410
     19 O          64.8975   89.0848   14.3303 O.3     1  UNL1       -0.3771
     20 H          64.9891   88.1237   14.4246 H       1  UNL1        0.2112
     21 C          62.7324   89.6930   12.3448 C.ar    1  UNL1        0.0825
     22 C          62.9134   89.8536   10.8645 C.ar    1  UNL1        0.1157
     23 N          61.5716   90.1497   10.2629 N.ar    1  UNL1       -0.2228
     24 C          60.5614   90.1720   11.3714 C.ar    1  UNL1        0.1749
     25 N          61.2788   89.8898   12.6581 N.ar    1  UNL1       -0.3361
     26 H          60.8677   89.8420   13.5514 H       1  UNL1        0.1673
     27 C          64.0475   90.8577   13.5338 C.3     1  UNL1        0.0340
     28 C          63.9250   91.4601   14.9020 C.3     1  UNL1        0.0031
     29 C          64.4025   91.7240   12.3619 C.3     1  UNL1        0.0031
@<TRIPOS>BOND
     1    16    17    1
     2    17    15    1
     3    15    11    1
     4    11    12   am
     5    12    13    2
     6    12     1    1
     7     1     2   ar
     8     2     3   ar
     9     3     4   ar
    10     4     5   ar
    11     5     6   ar
    12     6    18    1
    13    18    19    1
    14    18    21    1
    15    21    22   ar
    16    22    23   ar
    17    23    24   ar
    18    24    25   ar
    19    18    27    1
    20    27    28    1
    21    27    29    1
    22     6     7   ar
    23     7     8   ar
    24     8     9   ar
    25     9    10   ar
    26    10     1   ar
    27     9     4   ar
    28    25    21   ar
    29    11    14    1
    30    19    20    1
    31    25    26    1
