@<TRIPOS>MOLECULE
*****
 63 69 0 0 0
SMALL
GASTEIGER

@<TRIPOS>ATOM
      1 N          65.3704   89.3750   14.6506 N.3     1  UNL1       -0.1862
      2 C          65.5621   88.1281   15.4620 C.3     1  UNL1        0.1775
      3 C          64.8315   86.8718   15.0906 C.2     1  UNL1        0.2452
      4 O          65.0233   85.6249   15.9022 O.2     1  UNL1       -0.2732
      5 N          63.9091   86.8624   13.9078 N.am    1  UNL1       -0.2541
      6 C          63.1785   85.6061   13.5365 C.3     1  UNL1        0.1577
      7 C          62.2561   85.5967   12.3536 C.2     1  UNL1        0.2445
      8 O          61.5255   84.3404   11.9823 O.2     1  UNL1       -0.2731
      9 N          62.0644   86.8436   11.5421 N.am    1  UNL1       -0.2705
     10 C          62.7950   88.0999   11.9135 C.3     1  UNL1        0.1359
     11 C          63.7174   88.1093   13.0964 C.3     1  UNL1        0.1908
     12 N          64.4480   89.3656   13.4677 N.am    1  UNL1       -0.1863
     13 C          64.2562   90.6125   12.6562 C.2     1  UNL1        0.3191
     14 O          63.3339   90.6031   11.4734 O.2     1  UNL1       -0.2512
     15 N          64.9869   91.8688   13.0276 N.am    1  UNL1       -0.2836
     16 H          65.5922   91.8750   13.8039 H       1  UNL1        0.1513
     17 C          66.1010   90.6313   15.0219 C.3     1  UNL1        0.1188
     18 C          68.1087   92.2436   14.6759 C.2     1  UNL1       -0.0034
     19 C          67.4444   90.9229   14.4218 C.2     1  UNL1       -0.0071
     20 C          63.3702   84.3592   14.3479 C.3     1  UNL1        0.0556
     21 C          63.1694   83.0142   13.7150 C.ar    1  UNL1       -0.0198
     22 C          62.1503   82.0666   14.2748 C.ar    1  UNL1       -0.0011
     23 C          61.9494   80.7216   13.6419 C.ar    1  UNL1        0.0363
     24 C          62.7677   80.3242   12.4492 C.ar    1  UNL1        0.1337
     25 O          62.5668   78.9791   11.8164 O.3     1  UNL1       -0.5055
     26 C          63.7869   81.2718   11.8894 C.ar    1  UNL1        0.0363
     27 C          63.9877   82.6168   12.5223 C.ar    1  UNL1       -0.0011
     28 H          61.9302   78.3872   12.1660 H       1  UNL1        0.2922
     29 C          61.1420   86.8342   10.3593 C.3     1  UNL1        0.1217
     30 C          60.5475   88.1183    9.8615 C.ar    1  UNL1        0.0135
     31 C          60.3477   89.2675   10.8046 C.ar    1  UNL1       -0.0012
     32 C          59.7532   90.5515   10.3069 C.ar    1  UNL1       -0.0002
     33 C          59.3586   90.6864    8.8660 C.ar    1  UNL1        0.0016
     34 C          59.5585   89.5372    7.9229 C.ar    1  UNL1        0.0214
     35 C          59.2679   89.3771    6.4601 C.ar    1  UNL1        0.0721
     36 C          59.6827   87.9941    6.0538 C.ar    1  UNL1        0.0805
     37 N          60.2297   87.2995    7.2654 N.ar    1  UNL1       -0.3241
     38 C          60.7603   85.8973    7.3135 C.3     1  UNL1        0.1305
     39 C          60.1529   88.2532    8.4206 C.ar    1  UNL1        0.0577
     40 C          58.6677   90.4174    5.5613 C.2     1  UNL1        0.2505
     41 O          57.1961   90.7016    5.6212 O.2     1  UNL1       -0.2699
     42 N          59.5392   91.1735    4.6028 N.am    1  UNL1       -0.2760
     43 C          58.9392   92.2138    3.7041 C.3     1  UNL1        0.0942
     44 C          59.8107   92.9699    2.7456 C.3     1  UNL1        0.0306
     45 C          61.2824   92.6857    2.6857 C.3     1  UNL1        0.0801
     46 C          61.8824   91.6454    3.5845 C.3     1  UNL1        0.0306
     47 C          61.0109   90.8893    4.5430 C.3     1  UNL1        0.0942
     48 C          62.1539   93.4418    1.7272 C.2     1  UNL1        0.2254
     49 O          63.2076   94.3742    2.2472 O.2     1  UNL1       -0.2749
     50 N          61.9717   93.2655    0.2488 N.am    1  UNL1       -0.2764
     51 C          62.8432   94.0216   -0.7097 C.3     1  UNL1        0.1149
     52 C          60.9179   92.3330   -0.2711 C.3     1  UNL1        0.1107
     53 C          59.9036   92.8247   -1.2606 C.3     1  UNL1        0.0939
     54 N          58.6708   93.5326   -0.7820 N.3     1  UNL1       -0.2688
     55 C          57.3414   92.8394   -0.8302 C.3     1  UNL1        0.0897
     56 C          58.7673   94.9337   -0.2550 C.3     1  UNL1        0.0897
     57 C          64.7951   93.1156   12.2161 C.3     1  UNL1        0.1177
     58 C          65.8318   93.5237   11.2118 C.ar    1  UNL1       -0.0025
     59 C          65.9177   94.9516   10.7604 C.ar    1  UNL1       -0.0026
     60 C          66.9544   95.3596    9.7561 C.ar    1  UNL1       -0.0003
     61 C          67.9052   94.3398    9.2030 C.ar    1  UNL1       -0.0000
     62 C          67.8194   92.9118    9.6544 C.ar    1  UNL1       -0.0003
     63 C          66.7827   92.5038   10.6587 C.ar    1  UNL1       -0.0026
@<TRIPOS>BOND
     1    18    19    2
     2    19    17    1
     3    17     1    1
     4     1     2    1
     5     2     3    1
     6     3     4    2
     7     3     5   am
     8     5     6    1
     9     6    20    1
    10    20    21    1
    11    21    22   ar
    12    22    23   ar
    13    23    24   ar
    14    24    25    1
    15    24    26   ar
    16    26    27   ar
    17     6     7    1
    18     7     8    2
    19     7     9   am
    20     9    29    1
    21    29    30    1
    22    30    31   ar
    23    31    32   ar
    24    32    33   ar
    25    33    34   ar
    26    34    35   ar
    27    35    40    1
    28    40    41    2
    29    40    42   am
    30    42    43    1
    31    43    44    1
    32    44    45    1
    33    45    48    1
    34    48    49    2
    35    48    50   am
    36    50    51    1
    37    50    52    1
    38    52    53    1
    39    53    54    1
    40    54    55    1
    41    54    56    1
    42    45    46    1
    43    46    47    1
    44    35    36   ar
    45    36    37   ar
    46    37    38    1
    47    37    39   ar
    48     9    10    1
    49    11    10    1
    50    11    12    1
    51    12    13   am
    52    13    14    2
    53    13    15   am
    54    15    57    1
    55    57    58    1
    56    58    59   ar
    57    59    60   ar
    58    60    61   ar
    59    61    62   ar
    60    62    63   ar
    61    12     1    1
    62    63    58   ar
    63    11     5    1
    64    27    21   ar
    65    39    30   ar
    66    39    34   ar
    67    47    42    1
    68    25    28    1
    69    15    16    1
@<TRIPOS>MOLECULE
*****
 63 69 0 0 0
SMALL
GASTEIGER

@<TRIPOS>ATOM
      1 N          64.0100   86.3929   15.7729 N.3     1  UNL1       -0.1862
      2 C          64.1791   84.9328   16.0721 C.3     1  UNL1        0.1775
      3 C          63.9535   83.9151   14.9934 C.2     1  UNL1        0.2452
      4 O          64.1226   82.4550   15.2927 O.2     1  UNL1       -0.2732
      5 N          63.5589   84.3575   13.6156 N.am    1  UNL1       -0.2541
      6 C          63.3333   83.3398   12.5369 C.3     1  UNL1        0.1577
      7 C          62.9386   83.7822   11.1591 C.2     1  UNL1        0.2445
      8 O          62.7130   82.7646   10.0805 O.2     1  UNL1       -0.2731
      9 N          62.7695   85.2424   10.8598 N.am    1  UNL1       -0.2705
     10 C          62.9951   86.2601   11.9385 C.3     1  UNL1        0.1359
     11 C          63.3898   85.8176   13.3164 C.3     1  UNL1        0.1908
     12 N          63.6154   86.8353   14.3950 N.am    1  UNL1       -0.1863
     13 C          63.4463   88.2954   14.0957 C.2     1  UNL1        0.3191
     14 O          63.0517   88.7378   12.7179 O.2     1  UNL1       -0.2512
     15 N          63.6719   89.3131   15.1744 N.am    1  UNL1       -0.2836
     16 H          63.9309   89.0227   16.0787 H       1  UNL1        0.1513
     17 C          64.2356   87.4105   16.8515 C.3     1  UNL1        0.1188
     18 C          62.4411   86.7019   18.5915 C.2     1  UNL1       -0.0034
     19 C          63.1205   87.7708   17.7878 C.2     1  UNL1       -0.0071
     20 C          63.5023   81.8798   12.8361 C.3     1  UNL1        0.0556
     21 C          62.3223   81.0614   13.2694 C.ar    1  UNL1       -0.0198
     22 C          61.0886   81.7397   13.7871 C.ar    1  UNL1       -0.0011
     23 C          59.9085   80.9213   14.2203 C.ar    1  UNL1        0.0363
     24 C          59.9621   79.4247   14.1360 C.ar    1  UNL1        0.1337
     25 O          58.7821   78.6063   14.5693 O.3     1  UNL1       -0.5055
     26 C          61.1958   78.7463   13.6183 C.ar    1  UNL1        0.0363
     27 C          62.3759   79.5647   13.1850 C.ar    1  UNL1       -0.0011
     28 H          58.0114   79.0300   14.8926 H       1  UNL1        0.2922
     29 C          62.3749   85.6848    9.4820 C.3     1  UNL1        0.1217
     30 C          61.8998   87.0890    9.2524 C.ar    1  UNL1        0.0135
     31 C          62.3990   88.2018   10.1256 C.ar    1  UNL1       -0.0012
     32 C          61.9240   89.6059    9.8961 C.ar    1  UNL1       -0.0002
     33 C          60.9499   89.8973    8.7933 C.ar    1  UNL1        0.0016
     34 C          60.4507   88.7845    7.9201 C.ar    1  UNL1        0.0214
     35 C          59.4949   88.7673    6.7642 C.ar    1  UNL1        0.0721
     36 C          59.3792   87.3526    6.2794 C.ar    1  UNL1        0.0805
     37 N          60.2635   86.4954    7.1356 N.ar    1  UNL1       -0.3241
     38 C          60.4524   85.0134    7.0014 C.3     1  UNL1        0.1305
     39 C          60.9257   87.3803    8.1497 C.ar    1  UNL1        0.0577
     40 C          58.7803   89.9563    6.1933 C.2     1  UNL1        0.2505
     41 O          57.3791   90.2691    6.6281 O.2     1  UNL1       -0.2699
     42 N          59.4668   90.8323    5.1877 N.am    1  UNL1       -0.2760
     43 C          58.7522   92.0212    4.6169 C.3     1  UNL1        0.0942
     44 C          59.4387   92.8973    3.6113 C.3     1  UNL1        0.0306
     45 C          60.8399   92.5844    3.1765 C.3     1  UNL1        0.0801
     46 C          61.5544   91.3955    3.7474 C.3     1  UNL1        0.0306
     47 C          60.8679   90.5194    4.7530 C.3     1  UNL1        0.0942
     48 C          61.5264   93.4605    2.1709 C.2     1  UNL1        0.2254
     49 O          62.8574   94.0722    2.4938 O.2     1  UNL1       -0.2749
     50 N          60.8818   93.7249    0.8425 N.am    1  UNL1       -0.2764
     51 C          61.5683   94.6009   -0.1631 C.3     1  UNL1        0.1149
     52 C          59.5508   93.1132    0.5197 C.3     1  UNL1        0.1107
     53 C          59.3843   92.2939   -0.7257 C.3     1  UNL1        0.0939
     54 N          58.3390   92.6673   -1.7347 N.3     1  UNL1       -0.2688
     55 C          58.7319   92.9368   -3.1571 C.3     1  UNL1        0.0897
     56 C          56.9008   92.7711   -1.3213 C.3     1  UNL1        0.0897
     57 C          63.5028   90.7731   14.8752 C.3     1  UNL1        0.1177
     58 C          64.5276   91.4931   14.0497 C.ar    1  UNL1       -0.0025
     59 C          64.3029   91.6904   12.5799 C.ar    1  UNL1       -0.0026
     60 C          65.3277   92.4104   11.7544 C.ar    1  UNL1       -0.0003
     61 C          66.5772   92.9332   12.3988 C.ar    1  UNL1       -0.0000
     62 C          66.8020   92.7360   13.8687 C.ar    1  UNL1       -0.0003
     63 C          65.7772   92.0160   14.6942 C.ar    1  UNL1       -0.0026
@<TRIPOS>BOND
     1    18    19    2
     2    19    17    1
     3    17     1    1
     4     1     2    1
     5     2     3    1
     6     3     4    2
     7     3     5   am
     8     5     6    1
     9     6    20    1
    10    20    21    1
    11    21    22   ar
    12    22    23   ar
    13    23    24   ar
    14    24    25    1
    15    24    26   ar
    16    26    27   ar
    17     6     7    1
    18     7     8    2
    19     7     9   am
    20     9    29    1
    21    29    30    1
    22    30    31   ar
    23    31    32   ar
    24    32    33   ar
    25    33    34   ar
    26    34    35   ar
    27    35    40    1
    28    40    41    2
    29    40    42   am
    30    42    43    1
    31    43    44    1
    32    44    45    1
    33    45    48    1
    34    48    49    2
    35    48    50   am
    36    50    51    1
    37    50    52    1
    38    52    53    1
    39    53    54    1
    40    54    55    1
    41    54    56    1
    42    45    46    1
    43    46    47    1
    44    35    36   ar
    45    36    37   ar
    46    37    38    1
    47    37    39   ar
    48     9    10    1
    49    11    10    1
    50    11    12    1
    51    12    13   am
    52    13    14    2
    53    13    15   am
    54    15    57    1
    55    57    58    1
    56    58    59   ar
    57    59    60   ar
    58    60    61   ar
    59    61    62   ar
    60    62    63   ar
    61    12     1    1
    62    63    58   ar
    63    11     5    1
    64    27    21   ar
    65    39    30   ar
    66    39    34   ar
    67    47    42    1
    68    25    28    1
    69    15    16    1
@<TRIPOS>MOLECULE
*****
 63 69 0 0 0
SMALL
GASTEIGER

@<TRIPOS>ATOM
      1 N          63.9909   86.2521   15.8588 N.3     1  UNL1       -0.1862
      2 C          64.1190   84.7769   16.0978 C.3     1  UNL1        0.1775
      3 C          63.9478   83.8150   14.9597 C.2     1  UNL1        0.2452
      4 O          64.0759   82.3397   15.1988 O.2     1  UNL1       -0.2732
      5 N          63.6485   84.3283   13.5824 N.am    1  UNL1       -0.2541
      6 C          63.4773   83.3664   12.4442 C.3     1  UNL1        0.1577
      7 C          63.1780   83.8798   11.0670 C.2     1  UNL1        0.2445
      8 O          63.0068   82.9179    9.9288 O.2     1  UNL1       -0.2731
      9 N          63.0499   85.3551   10.8279 N.am    1  UNL1       -0.2705
     10 C          63.2211   86.3170   11.9660 C.3     1  UNL1        0.1359
     11 C          63.5204   85.8036   13.3434 C.3     1  UNL1        0.1908
     12 N          63.6916   86.7655   14.4815 N.am    1  UNL1       -0.1863
     13 C          63.5635   88.2408   14.2424 C.2     1  UNL1        0.3191
     14 O          63.2642   88.7541   12.8652 O.2     1  UNL1       -0.2512
     15 N          63.7347   89.2027   15.3806 N.am    1  UNL1       -0.2836
     16 H          63.9312   88.8657   16.2845 H       1  UNL1        0.1513
     17 C          64.1621   87.2140   16.9969 C.3     1  UNL1        0.1188
     18 C          62.5388   86.6854   18.9553 C.2     1  UNL1       -0.0034
     19 C          62.9833   87.5903   17.8447 C.2     1  UNL1       -0.0071
     20 C          63.6053   81.8912   12.6833 C.3     1  UNL1        0.0556
     21 C          62.4197   81.1019   13.1537 C.ar    1  UNL1       -0.0198
     22 C          62.4434   79.6034   13.0908 C.ar    1  UNL1       -0.0011
     23 C          61.2578   78.8141   13.5612 C.ar    1  UNL1        0.0363
     24 C          60.0484   79.5233   14.0944 C.ar    1  UNL1        0.1337
     25 O          58.8628   78.7340   14.5648 O.3     1  UNL1       -0.5055
     26 C          60.0246   81.0218   14.1573 C.ar    1  UNL1        0.0363
     27 C          61.2103   81.8111   13.6870 C.ar    1  UNL1       -0.0011
     28 H          58.8776   77.7979   14.5256 H       1  UNL1        0.2922
     29 C          62.7506   85.8685    9.4506 C.3     1  UNL1        0.1217
     30 C          61.9992   87.1550    9.2766 C.ar    1  UNL1        0.0135
     31 C          62.3237   88.3361   10.1425 C.ar    1  UNL1       -0.0012
     32 C          61.5724   89.6226    9.9685 C.ar    1  UNL1       -0.0002
     33 C          60.4965   89.7281    8.9286 C.ar    1  UNL1        0.0016
     34 C          60.1720   88.5470    8.0627 C.ar    1  UNL1        0.0214
     35 C          59.1709   88.3540    6.9625 C.ar    1  UNL1        0.0721
     36 C          59.3036   86.9482    6.4565 C.ar    1  UNL1        0.0805
     37 N          60.3866   86.2724    7.2440 N.ar    1  UNL1       -0.3241
     38 C          60.8513   84.8569    7.0695 C.3     1  UNL1        0.1305
     39 C          60.9234   87.2605    8.2367 C.ar    1  UNL1        0.0577
     40 C          58.2065   89.3857    6.4570 C.2     1  UNL1        0.2505
     41 O          56.7545   89.2983    6.8232 O.2     1  UNL1       -0.2699
     42 N          58.6940   90.5048    5.5852 N.am    1  UNL1       -0.2760
     43 C          57.7297   91.5365    5.0797 C.3     1  UNL1        0.0942
     44 C          58.2173   92.6556    4.2080 C.3     1  UNL1        0.0306
     45 C          59.6692   92.7430    3.8417 C.3     1  UNL1        0.0801
     46 C          60.6336   91.7112    4.3473 C.3     1  UNL1        0.0306
     47 C          60.1461   90.5921    5.2190 C.3     1  UNL1        0.0942
     48 C          60.1568   93.8621    2.9700 C.2     1  UNL1        0.2254
     49 O          60.0415   95.2824    3.4385 O.2     1  UNL1       -0.2749
     50 N          60.7595   93.5608    1.6299 N.am    1  UNL1       -0.2764
     51 C          61.2471   94.6799    0.7582 C.3     1  UNL1        0.1149
     52 C          60.8747   92.1405    1.1615 C.3     1  UNL1        0.1107
     53 C          62.2261   91.5057    1.0171 C.3     1  UNL1        0.0939
     54 N          63.3223   91.8479    1.9821 N.3     1  UNL1       -0.2688
     55 C          63.5701   90.9745    3.1762 C.3     1  UNL1        0.0897
     56 C          64.1708   93.0635    1.7530 C.3     1  UNL1        0.0897
     57 C          63.6066   90.6779   15.1415 C.3     1  UNL1        0.1177
     58 C          64.8220   91.4924   14.8108 C.ar    1  UNL1       -0.0025
     59 C          65.5438   92.2367   15.8948 C.ar    1  UNL1       -0.0026
     60 C          66.7592   93.0513   15.5640 C.ar    1  UNL1       -0.0003
     61 C          67.2528   93.1215   14.1494 C.ar    1  UNL1       -0.0000
     62 C          66.5311   92.3771   13.0653 C.ar    1  UNL1       -0.0003
     63 C          65.3157   91.5626   13.3960 C.ar    1  UNL1       -0.0026
@<TRIPOS>BOND
     1    18    19    2
     2    19    17    1
     3    17     1    1
     4     1     2    1
     5     2     3    1
     6     3     4    2
     7     3     5   am
     8     5     6    1
     9     6    20    1
    10    20    21    1
    11    21    22   ar
    12    22    23   ar
    13    23    24   ar
    14    24    25    1
    15    24    26   ar
    16    26    27   ar
    17     6     7    1
    18     7     8    2
    19     7     9   am
    20     9    29    1
    21    29    30    1
    22    30    31   ar
    23    31    32   ar
    24    32    33   ar
    25    33    34   ar
    26    34    35   ar
    27    35    40    1
    28    40    41    2
    29    40    42   am
    30    42    43    1
    31    43    44    1
    32    44    45    1
    33    45    48    1
    34    48    49    2
    35    48    50   am
    36    50    51    1
    37    50    52    1
    38    52    53    1
    39    53    54    1
    40    54    55    1
    41    54    56    1
    42    45    46    1
    43    46    47    1
    44    35    36   ar
    45    36    37   ar
    46    37    38    1
    47    37    39   ar
    48     9    10    1
    49    11    10    1
    50    11    12    1
    51    12    13   am
    52    13    14    2
    53    13    15   am
    54    15    57    1
    55    57    58    1
    56    58    59   ar
    57    59    60   ar
    58    60    61   ar
    59    61    62   ar
    60    62    63   ar
    61    12     1    1
    62    63    58   ar
    63    11     5    1
    64    27    21   ar
    65    39    30   ar
    66    39    34   ar
    67    47    42    1
    68    25    28    1
    69    15    16    1
