@<TRIPOS>MOLECULE
*****
 62 68 0 0 0
SMALL
GASTEIGER

@<TRIPOS>ATOM
      1 C          61.1032   87.2218   11.9139 C.3     1  UNL1        0.1021
      2 N          60.0337   89.3740    8.1094 N.3     1  UNL1       -0.2650
      3 C          59.5129   87.9898    8.3599 C.3     1  UNL1        0.0900
      4 C          59.8694   87.2724    9.6280 C.3     1  UNL1        0.0901
      5 N          60.7467   87.9392   10.6457 N.3     1  UNL1       -0.2621
      6 C          61.2675   89.3233   10.3952 C.3     1  UNL1        0.1510
      7 C          60.9110   90.0407    9.1270 C.3     1  UNL1        0.0980
      8 C          62.1449   89.9902   11.4129 C.2     1  UNL1        0.2386
      9 O          61.9142   89.7489   12.8753 O.2     1  UNL1       -0.2736
     10 N          63.2528   90.8982   10.9682 N.am    1  UNL1       -0.2961
     11 H          63.4042   91.0566   10.0084 H       1  UNL1        0.1497
     12 C          64.1301   91.5650   11.9859 C.3     1  UNL1        0.1939
     13 C          65.2313   92.4816   11.5415 C.3     1  UNL1        0.4154
     14 F          66.3324   93.3981   11.0972 F       1  UNL1       -0.1682
     15 F          65.2678   93.1000   12.9076 F       1  UNL1       -0.1682
     16 F          65.1948   91.8632   10.1755 F       1  UNL1       -0.1682
     17 C          60.9670   90.8541    6.9101 C.3     1  UNL1        0.0255
     18 C          59.6772   90.0913    6.8412 C.3     1  UNL1        0.1147
     19 C          58.3875   89.3286    6.7723 C.3     1  UNL1        0.0255
     20 C          59.3207   90.8087    5.5730 C.ar    1  UNL1        0.2185
     21 N          57.9325   91.0845    5.0764 N.ar    1  UNL1       -0.2094
     22 C          58.0436   91.8225    3.7752 C.ar    1  UNL1        0.1392
     23 C          59.5007   92.0029    3.4677 C.ar    1  UNL1        0.1659
     24 O          60.2899   91.3764    4.5788 O.2     1  UNL1       -0.4370
     25 C          60.0687   92.6893    2.2610 C.ar    1  UNL1        0.0362
     26 C          59.1571   93.1554    1.1647 C.ar    1  UNL1        0.0039
     27 C          59.7252   93.8418   -0.0420 C.ar    1  UNL1        0.0115
     28 C          61.2048   94.0621   -0.1524 C.ar    1  UNL1        0.0577
     29 CL         61.7729   94.7485   -1.3591 Cl      1  UNL1       -0.0822
     30 C          62.1164   93.5960    0.9439 C.ar    1  UNL1        0.0115
     31 C          61.5483   92.9096    2.1506 C.ar    1  UNL1        0.0039
     32 C          62.2232   86.2241   11.9218 C.3     1  UNL1        0.1269
     33 O          61.9639   84.8022   11.5202 O.3     1  UNL1       -0.3830
     34 H          62.7878   84.2938   11.5806 H       1  UNL1        0.2104
     35 C          63.6025   86.6482   12.3311 C.3     1  UNL1        0.0402
     36 C          64.0488   86.4769   13.7530 C.3     1  UNL1        0.0864
     37 C          64.0826   87.6588   14.6760 C.2     1  UNL1        0.2228
     38 O          63.7173   87.4923   16.1213 O.2     1  UNL1       -0.2751
     39 N          64.4816   89.0071   14.1538 N.am    1  UNL1       -0.2999
     40 H          64.7214   89.1163   13.2052 H       1  UNL1        0.1498
     41 C          64.5154   90.1890   15.0768 C.3     1  UNL1        0.1278
     42 C          65.7301   91.0677   15.1261 C.ar    1  UNL1        0.0320
     43 C          66.9110   90.7644   14.2523 C.ar    1  UNL1        0.0004
     44 C          68.1257   91.6431   14.3016 C.ar    1  UNL1       -0.0001
     45 C          68.1595   92.8250   15.2246 C.ar    1  UNL1        0.0031
     46 C          66.9786   93.1282   16.0984 C.ar    1  UNL1        0.0366
     47 C          65.7639   92.2495   16.0491 C.ar    1  UNL1        0.1362
     48 O          64.5829   92.5527   16.9229 O.3     1  UNL1       -0.4730
     49 C          63.3683   91.6741   16.8736 C.3     1  UNL1        0.2364
     50 C          63.3345   90.4922   15.9506 C.3     1  UNL1        0.1762
     51 O          62.1197   89.6135   15.9013 O.3     1  UNL1       -0.3788
     52 H          61.4541   89.9468   16.5232 H       1  UNL1        0.2106
     53 C          64.4613   85.1237   14.2517 C.3     1  UNL1        0.0737
     54 C          64.0855   83.8934   13.4802 C.ar    1  UNL1        0.1234
     55 C          63.3512   82.7029   14.0221 C.ar    1  UNL1        0.0361
     56 C          63.1899   81.7113   12.9082 C.ar    1  UNL1        0.0404
     57 C          62.5472   80.3571   12.8552 C.ar    1  UNL1        0.0238
     58 C          62.5391   79.5804   11.5720 C.ar    1  UNL1        0.0991
     59 N          63.1737   80.1580   10.3417 N.ar    1  UNL1       -0.2391
     60 C          63.8164   81.5123   10.3946 C.ar    1  UNL1        0.1362
     61 C          63.8246   82.2890   11.6779 C.ar    1  UNL1        0.1639
     62 O          64.3781   83.6375   12.0314 O.2     1  UNL1       -0.4562
@<TRIPOS>BOND
     1    17    18    1
     2    18    19    1
     3    18    20    1
     4    20    21   ar
     5    21    22   ar
     6    22    23   ar
     7    23    25    1
     8    25    26   ar
     9    26    27   ar
    10    27    28   ar
    11    28    29    1
    12    28    30   ar
    13    30    31   ar
    14    23    24   ar
    15    18     2    1
    16     2     3    1
    17     3     4    1
    18     4     5    1
    19     5     1    1
    20     1    32    1
    21    32    33    1
    22    32    35    1
    23    36    35    1
    24    36    53    1
    25    53    54    1
    26    54    55   ar
    27    55    56   ar
    28    56    57   ar
    29    57    58   ar
    30    58    59   ar
    31    59    60   ar
    32    60    61   ar
    33    61    62   ar
    34    36    37    1
    35    37    38    2
    36    37    39   am
    37    41    39    1
    38    41    42    1
    39    42    43   ar
    40    43    44   ar
    41    44    45   ar
    42    45    46   ar
    43    46    47   ar
    44    47    48    1
    45    48    49    1
    46    49    50    1
    47    50    51    1
    48     5     6    1
    49     6     8    1
    50     8     9    2
    51     8    10   am
    52    10    12    1
    53    12    13    1
    54    13    14    1
    55    13    15    1
    56    13    16    1
    57     6     7    1
    58    24    20   ar
    59     7     2    1
    60    31    25   ar
    61    62    54   ar
    62    50    41    1
    63    61    56   ar
    64    47    42   ar
    65    33    34    1
    66    39    40    1
    67    51    52    1
    68    10    11    1
@<TRIPOS>MOLECULE
*****
 62 68 0 0 0
SMALL
GASTEIGER

@<TRIPOS>ATOM
      1 C          59.3704   87.1934    9.2571 C.3     1  UNL1        0.1021
      2 N          59.9264   90.1834    5.9403 N.3     1  UNL1       -0.2650
      3 C          59.5199   88.7755    5.6205 C.3     1  UNL1        0.0900
      4 C          59.3345   87.7788    6.7261 C.3     1  UNL1        0.0901
      5 N          59.5558   88.1901    8.1515 N.3     1  UNL1       -0.2621
      6 C          59.9623   89.5981    8.4713 C.3     1  UNL1        0.1510
      7 C          60.1476   90.5947    7.3657 C.3     1  UNL1        0.0980
      8 C          60.1835   90.0094    9.8968 C.2     1  UNL1        0.2386
      9 O          61.4768   90.6540   10.2993 O.2     1  UNL1       -0.2736
     10 N          59.1115   89.7762   10.9197 N.am    1  UNL1       -0.2961
     11 H          58.2627   89.3531   10.6555 H       1  UNL1        0.1497
     12 C          59.3328   90.1875   12.3451 C.3     1  UNL1        0.1939
     13 C          58.8701   89.3000   13.4623 C.3     1  UNL1        0.4154
     14 F          58.4075   88.4124   14.5796 F       1  UNL1       -0.1682
     15 F          57.5716   89.0750   12.7460 F       1  UNL1       -0.1682
     16 F          60.1686   89.5249   14.1787 F       1  UNL1       -0.1682
     17 C          61.5506   90.7746    4.7104 C.3     1  UNL1        0.0255
     18 C          60.1117   91.1801    4.8347 C.3     1  UNL1        0.1147
     19 C          58.6729   91.5855    4.9590 C.3     1  UNL1        0.0255
     20 C          60.2971   92.1767    3.7291 C.ar    1  UNL1        0.2185
     21 N          59.2204   93.0192    3.1118 N.ar    1  UNL1       -0.2094
     22 C          59.8495   93.8690    2.0479 C.ar    1  UNL1        0.1392
     23 C          61.3150   93.5518    2.0076 C.ar    1  UNL1        0.1659
     24 O          61.5916   92.5059    3.0467 O.2     1  UNL1       -0.4370
     25 C          62.3264   94.1717    1.0895 C.ar    1  UNL1        0.0362
     26 C          63.7037   93.5864    0.9861 C.ar    1  UNL1        0.0039
     27 C          64.7149   94.2063    0.0680 C.ar    1  UNL1        0.0115
     28 C          64.3490   95.4114   -0.7467 C.ar    1  UNL1        0.0577
     29 CL         65.3604   96.0313   -1.6648 Cl      1  UNL1       -0.0822
     30 C          62.9718   95.9967   -0.6433 C.ar    1  UNL1        0.0115
     31 C          61.9605   95.3768    0.2748 C.ar    1  UNL1        0.0039
     32 C          60.5665   86.5655    9.9090 C.3     1  UNL1        0.1269
     33 O          61.2552   85.4052    9.2535 O.3     1  UNL1       -0.3830
     34 H          62.0033   85.1214    9.8020 H       1  UNL1        0.2104
     35 C          61.0738   87.0977   11.2164 C.3     1  UNL1        0.0402
     36 C          62.4992   86.8617   11.6198 C.3     1  UNL1        0.0864
     37 C          63.1941   87.8366   12.5235 C.2     1  UNL1        0.2228
     38 O          64.0858   87.3371   13.6216 O.2     1  UNL1       -0.2751
     39 N          62.9975   89.3108   12.3292 N.am    1  UNL1       -0.2999
     40 H          62.4123   89.6386   11.6085 H       1  UNL1        0.1498
     41 C          63.6924   90.2857   13.2329 C.3     1  UNL1        0.1278
     42 C          64.5122   91.3975   12.6480 C.ar    1  UNL1        0.0320
     43 C          64.6370   91.5343   11.1595 C.ar    1  UNL1        0.0004
     44 C          65.4568   92.6460   10.5747 C.ar    1  UNL1       -0.0001
     45 C          66.1517   93.6209   11.4784 C.ar    1  UNL1        0.0031
     46 C          66.0269   93.4841   12.9669 C.ar    1  UNL1        0.0366
     47 C          65.2071   92.3724   13.5517 C.ar    1  UNL1        0.1362
     48 O          65.0823   92.2355   15.0403 O.3     1  UNL1       -0.4730
     49 C          64.2625   91.1238   15.6251 C.3     1  UNL1        0.2364
     50 C          63.5676   90.1489   14.7214 C.3     1  UNL1        0.1762
     51 O          62.7478   89.0371   15.3063 O.3     1  UNL1       -0.3788
     52 H          62.7718   89.0925   16.2744 H       1  UNL1        0.2106
     53 C          63.2296   85.6508   11.1195 C.3     1  UNL1        0.0737
     54 C          62.9880   84.3135   11.7547 C.ar    1  UNL1        0.1234
     55 C          63.2072   82.9779   11.1082 C.ar    1  UNL1        0.0361
     56 C          62.8396   81.9160   12.1018 C.ar    1  UNL1        0.0404
     57 C          62.8536   80.4182   12.0215 C.ar    1  UNL1        0.0238
     58 C          62.4212   79.5998   13.2019 C.ar    1  UNL1        0.0991
     59 N          61.9748   80.2792   14.4625 N.ar    1  UNL1       -0.2391
     60 C          61.9608   81.7770   14.5428 C.ar    1  UNL1        0.1362
     61 C          62.3931   82.5954   13.3624 C.ar    1  UNL1        0.1639
     62 O          62.4849   84.0771   13.1479 O.2     1  UNL1       -0.4562
@<TRIPOS>BOND
     1    17    18    1
     2    18    19    1
     3    18    20    1
     4    20    21   ar
     5    21    22   ar
     6    22    23   ar
     7    23    25    1
     8    25    26   ar
     9    26    27   ar
    10    27    28   ar
    11    28    29    1
    12    28    30   ar
    13    30    31   ar
    14    23    24   ar
    15    18     2    1
    16     2     3    1
    17     3     4    1
    18     4     5    1
    19     5     1    1
    20     1    32    1
    21    32    33    1
    22    32    35    1
    23    36    35    1
    24    36    53    1
    25    53    54    1
    26    54    55   ar
    27    55    56   ar
    28    56    57   ar
    29    57    58   ar
    30    58    59   ar
    31    59    60   ar
    32    60    61   ar
    33    61    62   ar
    34    36    37    1
    35    37    38    2
    36    37    39   am
    37    41    39    1
    38    41    42    1
    39    42    43   ar
    40    43    44   ar
    41    44    45   ar
    42    45    46   ar
    43    46    47   ar
    44    47    48    1
    45    48    49    1
    46    49    50    1
    47    50    51    1
    48     5     6    1
    49     6     8    1
    50     8     9    2
    51     8    10   am
    52    10    12    1
    53    12    13    1
    54    13    14    1
    55    13    15    1
    56    13    16    1
    57     6     7    1
    58    24    20   ar
    59     7     2    1
    60    31    25   ar
    61    62    54   ar
    62    50    41    1
    63    61    56   ar
    64    47    42   ar
    65    33    34    1
    66    39    40    1
    67    51    52    1
    68    10    11    1
@<TRIPOS>MOLECULE
*****
 62 68 0 0 0
SMALL
GASTEIGER

@<TRIPOS>ATOM
      1 C          59.6041   87.0469    9.2757 C.3     1  UNL1        0.1021
      2 N          59.6936   90.1751    6.0421 N.3     1  UNL1       -0.2650
      3 C          59.4090   88.7442    5.6936 C.3     1  UNL1        0.0900
      4 C          59.3791   87.7015    6.7715 C.3     1  UNL1        0.0901
      5 N          59.6339   88.0897    8.1978 N.3     1  UNL1       -0.2621
      6 C          59.9185   89.5206    8.5462 C.3     1  UNL1        0.1510
      7 C          59.9484   90.5633    7.4684 C.3     1  UNL1        0.0980
      8 C          60.1733   89.9088    9.9726 C.2     1  UNL1        0.2386
      9 O          61.5014   90.4833   10.3677 O.2     1  UNL1       -0.2736
     10 N          59.1001   89.7226   11.0038 N.am    1  UNL1       -0.2961
     11 H          58.2284   89.3455   10.7444 H       1  UNL1        0.1497
     12 C          59.3549   90.1108   12.4300 C.3     1  UNL1        0.1939
     13 C          58.8651   89.2348   13.5448 C.3     1  UNL1        0.4154
     14 F          58.3752   88.3587   14.6595 F       1  UNL1       -0.1682
     15 F          60.1263   89.5041   14.3107 F       1  UNL1       -0.1682
     16 F          57.6038   88.9655   12.7789 F       1  UNL1       -0.1682
     17 C          61.1837   90.9521    4.7475 C.3     1  UNL1        0.0255
     18 C          59.7234   91.2179    4.9642 C.3     1  UNL1        0.1147
     19 C          58.2631   91.4836    5.1808 C.3     1  UNL1        0.0255
     20 C          59.7532   92.2606    3.8863 C.ar    1  UNL1        0.2185
     21 N          59.8407   93.7433    4.0961 N.ar    1  UNL1       -0.2094
     22 C          59.8424   94.4028    2.7488 C.ar    1  UNL1        0.1392
     23 C          59.7559   93.3277    1.7064 C.ar    1  UNL1        0.1659
     24 O          59.7008   92.0037    2.4094 O.2     1  UNL1       -0.4370
     25 C          59.7292   93.5393    0.2216 C.ar    1  UNL1        0.0362
     26 C          58.4827   94.0457   -0.4415 C.ar    1  UNL1        0.0039
     27 C          58.4561   94.2573   -1.9262 C.ar    1  UNL1        0.0115
     28 C          59.6759   93.9625   -2.7478 C.ar    1  UNL1        0.0577
     29 CL         59.6492   94.1741   -4.2327 Cl      1  UNL1       -0.0822
     30 C          60.9224   93.4561   -2.0847 C.ar    1  UNL1        0.0115
     31 C          60.9490   93.2445   -0.6000 C.ar    1  UNL1        0.0039
     32 C          60.8871   86.5400    9.8645 C.3     1  UNL1        0.1269
     33 O          61.7839   85.6506    9.0552 O.3     1  UNL1       -0.3830
     34 H          62.5649   85.4150    9.5801 H       1  UNL1        0.2104
     35 C          61.2735   86.9223   11.2625 C.3     1  UNL1        0.0402
     36 C          62.6837   86.7212   11.7325 C.3     1  UNL1        0.0864
     37 C          63.3221   87.7291   12.6418 C.2     1  UNL1        0.2228
     38 O          64.1786   87.2713   13.7850 O.2     1  UNL1       -0.2751
     39 N          63.1041   89.1945   12.4078 N.am    1  UNL1       -0.2999
     40 H          62.5419   89.4949   11.6575 H       1  UNL1        0.1498
     41 C          63.7425   90.2023   13.3171 C.3     1  UNL1        0.1278
     42 C          64.5472   91.3292   12.7403 C.ar    1  UNL1        0.0320
     43 C          64.7135   91.4483   11.2544 C.ar    1  UNL1        0.0004
     44 C          65.5182   92.5751   10.6777 C.ar    1  UNL1       -0.0001
     45 C          66.1566   93.5830   11.5870 C.ar    1  UNL1        0.0031
     46 C          65.9903   93.4639   13.0729 C.ar    1  UNL1        0.0366
     47 C          65.1856   92.3371   13.6496 C.ar    1  UNL1        0.1362
     48 O          65.0192   92.2180   15.1356 O.3     1  UNL1       -0.4730
     49 C          64.2145   91.0911   15.7123 C.3     1  UNL1        0.2364
     50 C          63.5761   90.0833   14.8031 C.3     1  UNL1        0.1762
     51 O          62.7714   88.9564   15.3798 O.3     1  UNL1       -0.3788
     52 H          62.7641   89.0264   16.3473 H       1  UNL1        0.2106
     53 C          63.4556   85.5124   11.2932 C.3     1  UNL1        0.0737
     54 C          63.1076   84.1603   11.8416 C.ar    1  UNL1        0.1234
     55 C          62.4721   83.8854   13.1722 C.ar    1  UNL1        0.0361
     56 C          62.3058   82.4009   13.3086 C.ar    1  UNL1        0.0404
     57 C          61.7381   81.5512   14.4067 C.ar    1  UNL1        0.0238
     58 C          61.7031   80.0590   14.2584 C.ar    1  UNL1        0.0991
     59 N          62.2357   79.4164   13.0121 N.ar    1  UNL1       -0.2391
     60 C          62.8035   80.2661   11.9140 C.ar    1  UNL1        0.1362
     61 C          62.8385   81.7583   12.0622 C.ar    1  UNL1        0.1639
     62 O          63.3340   82.8457   11.1556 O.2     1  UNL1       -0.4562
@<TRIPOS>BOND
     1    17    18    1
     2    18    19    1
     3    18    20    1
     4    20    21   ar
     5    21    22   ar
     6    22    23   ar
     7    23    25    1
     8    25    26   ar
     9    26    27   ar
    10    27    28   ar
    11    28    29    1
    12    28    30   ar
    13    30    31   ar
    14    23    24   ar
    15    18     2    1
    16     2     3    1
    17     3     4    1
    18     4     5    1
    19     5     1    1
    20     1    32    1
    21    32    33    1
    22    32    35    1
    23    36    35    1
    24    36    53    1
    25    53    54    1
    26    54    55   ar
    27    55    56   ar
    28    56    57   ar
    29    57    58   ar
    30    58    59   ar
    31    59    60   ar
    32    60    61   ar
    33    61    62   ar
    34    36    37    1
    35    37    38    2
    36    37    39   am
    37    41    39    1
    38    41    42    1
    39    42    43   ar
    40    43    44   ar
    41    44    45   ar
    42    45    46   ar
    43    46    47   ar
    44    47    48    1
    45    48    49    1
    46    49    50    1
    47    50    51    1
    48     5     6    1
    49     6     8    1
    50     8     9    2
    51     8    10   am
    52    10    12    1
    53    12    13    1
    54    13    14    1
    55    13    15    1
    56    13    16    1
    57     6     7    1
    58    24    20   ar
    59     7     2    1
    60    31    25   ar
    61    62    54   ar
    62    50    41    1
    63    61    56   ar
    64    47    42   ar
    65    33    34    1
    66    39    40    1
    67    51    52    1
    68    10    11    1
@<TRIPOS>MOLECULE
*****
 62 68 0 0 0
SMALL
GASTEIGER

@<TRIPOS>ATOM
      1 C          59.6904   87.6980    9.4700 C.3     1  UNL1        0.1021
      2 N          59.6614   90.4792    5.9324 N.3     1  UNL1       -0.2650
      3 C          58.9613   89.1551    5.8512 C.3     1  UNL1        0.0900
      4 C          58.9710   88.2280    7.0304 C.3     1  UNL1        0.0901
      5 N          59.6807   88.6251    8.2908 N.3     1  UNL1       -0.2621
      6 C          60.3807   89.9492    8.3720 C.3     1  UNL1        0.1510
      7 C          60.3711   90.8763    7.1928 C.3     1  UNL1        0.0980
      8 C          61.0905   90.3463    9.6325 C.2     1  UNL1        0.2386
      9 O          60.3010   90.7468   10.8434 O.2     1  UNL1       -0.2736
     10 N          62.5896   90.3429    9.6819 N.am    1  UNL1       -0.2961
     11 H          63.1078   90.0800    8.8872 H       1  UNL1        0.1497
     12 C          63.2993   90.7400   10.9423 C.3     1  UNL1        0.1939
     13 C          64.1210   91.9945   10.9770 C.3     1  UNL1        0.4154
     14 F          64.9427   93.2489   11.0118 F       1  UNL1       -0.1682
     15 F          64.6341   91.6965    9.5994 F       1  UNL1       -0.1682
     16 F          63.6079   92.2924   12.3546 F       1  UNL1       -0.1682
     17 C          58.1645   91.5542    4.8817 C.3     1  UNL1        0.0255
     18 C          59.6517   91.4063    4.7533 C.3     1  UNL1        0.1147
     19 C          61.1388   91.2584    4.6248 C.3     1  UNL1        0.0255
     20 C          59.6420   92.3334    3.5741 C.ar    1  UNL1        0.2185
     21 N          59.9576   93.7995    3.6026 N.ar    1  UNL1       -0.2094
     22 C          59.8257   94.3293    2.2055 C.ar    1  UNL1        0.1392
     23 C          59.4286   93.1906    1.3135 C.ar    1  UNL1        0.1659
     24 O          59.3151   91.9571    2.1594 O.2     1  UNL1       -0.4370
     25 C          59.1873   93.2713   -0.1648 C.ar    1  UNL1        0.0362
     26 C          60.3366   93.5013   -1.1008 C.ar    1  UNL1        0.0039
     27 C          60.0953   93.5819   -2.5790 C.ar    1  UNL1        0.0115
     28 C          58.7047   93.4326   -3.1212 C.ar    1  UNL1        0.0577
     29 CL         58.4634   93.5133   -4.5996 Cl      1  UNL1       -0.0822
     30 C          57.5554   93.2026   -2.1851 C.ar    1  UNL1        0.0115
     31 C          57.7967   93.1220   -0.7069 C.ar    1  UNL1        0.0039
     32 C          60.9767   87.4065   10.1843 C.3     1  UNL1        0.1269
     33 O          62.2052   87.0491    9.4011 O.3     1  UNL1       -0.3830
     34 H          62.9432   86.8926   10.0109 H       1  UNL1        0.2104
     35 C          61.0347   87.4723   11.6817 C.3     1  UNL1        0.0402
     36 C          62.3574   87.6096   12.3757 C.3     1  UNL1        0.0864
     37 C          62.6074   88.7721   13.2902 C.2     1  UNL1        0.2228
     38 O          61.5310   89.7914   13.5190 O.2     1  UNL1       -0.2751
     39 N          63.9338   88.9152   13.9759 N.am    1  UNL1       -0.2999
     40 H          64.6403   88.2462   13.8257 H       1  UNL1        0.1498
     41 C          64.1838   90.0776   14.8904 C.3     1  UNL1        0.1278
     42 C          65.2818   91.0520   14.5819 C.ar    1  UNL1        0.0320
     43 C          66.1297   90.8639   13.3589 C.ar    1  UNL1        0.0004
     44 C          67.2276   91.8383   13.0505 C.ar    1  UNL1       -0.0001
     45 C          67.4776   93.0007   13.9649 C.ar    1  UNL1        0.0031
     46 C          66.6297   93.1888   15.1879 C.ar    1  UNL1        0.0366
     47 C          65.5317   92.2144   15.4963 C.ar    1  UNL1        0.1362
     48 O          64.6837   92.4025   16.7193 O.3     1  UNL1       -0.4730
     49 C          63.5858   91.4281   17.0278 C.3     1  UNL1        0.2364
     50 C          63.3359   90.2657   16.1133 C.3     1  UNL1        0.1762
     51 O          62.2379   89.2913   16.4218 O.3     1  UNL1       -0.3788
     52 H          61.7907   89.5567   17.2407 H       1  UNL1        0.2106
     53 C          63.4301   86.5846   12.1553 C.3     1  UNL1        0.0737
     54 C          63.1648   85.1419   12.4693 C.ar    1  UNL1        0.1234
     55 C          63.3501   83.9868   11.5305 C.ar    1  UNL1        0.0361
     56 C          62.9676   82.7321   12.2581 C.ar    1  UNL1        0.0404
     57 C          62.9487   81.2930   11.8358 C.ar    1  UNL1        0.0238
     58 C          62.5081   80.2335   12.8019 C.ar    1  UNL1        0.0991
     59 N          62.0864   80.6132   14.1904 N.ar    1  UNL1       -0.2391
     60 C          62.1053   82.0524   14.6128 C.ar    1  UNL1        0.1362
     61 C          62.5458   83.1119   13.6467 C.ar    1  UNL1        0.1639
     62 O          62.6678   84.6012   13.7771 O.2     1  UNL1       -0.4562
@<TRIPOS>BOND
     1    17    18    1
     2    18    19    1
     3    18    20    1
     4    20    21   ar
     5    21    22   ar
     6    22    23   ar
     7    23    25    1
     8    25    26   ar
     9    26    27   ar
    10    27    28   ar
    11    28    29    1
    12    28    30   ar
    13    30    31   ar
    14    23    24   ar
    15    18     2    1
    16     2     3    1
    17     3     4    1
    18     4     5    1
    19     5     1    1
    20     1    32    1
    21    32    33    1
    22    32    35    1
    23    36    35    1
    24    36    53    1
    25    53    54    1
    26    54    55   ar
    27    55    56   ar
    28    56    57   ar
    29    57    58   ar
    30    58    59   ar
    31    59    60   ar
    32    60    61   ar
    33    61    62   ar
    34    36    37    1
    35    37    38    2
    36    37    39   am
    37    41    39    1
    38    41    42    1
    39    42    43   ar
    40    43    44   ar
    41    44    45   ar
    42    45    46   ar
    43    46    47   ar
    44    47    48    1
    45    48    49    1
    46    49    50    1
    47    50    51    1
    48     5     6    1
    49     6     8    1
    50     8     9    2
    51     8    10   am
    52    10    12    1
    53    12    13    1
    54    13    14    1
    55    13    15    1
    56    13    16    1
    57     6     7    1
    58    24    20   ar
    59     7     2    1
    60    31    25   ar
    61    62    54   ar
    62    50    41    1
    63    61    56   ar
    64    47    42   ar
    65    33    34    1
    66    39    40    1
    67    51    52    1
    68    10    11    1
@<TRIPOS>MOLECULE
*****
 62 68 0 0 0
SMALL
GASTEIGER

@<TRIPOS>ATOM
      1 C          59.6373   87.7983    9.6253 C.3     1  UNL1        0.1021
      2 N          59.9461   90.3830    5.9546 N.3     1  UNL1       -0.2650
      3 C          59.1898   89.0888    5.8992 C.3     1  UNL1        0.0900
      4 C          59.0869   88.2273    7.1227 C.3     1  UNL1        0.0901
      5 N          59.7403   88.6599    8.4018 N.3     1  UNL1       -0.2621
      6 C          60.4965   89.9541    8.4572 C.3     1  UNL1        0.1510
      7 C          60.5994   90.8156    7.2337 C.3     1  UNL1        0.0980
      8 C          61.1499   90.3868    9.7363 C.2     1  UNL1        0.2386
      9 O          60.3091   90.7139   10.9347 O.2     1  UNL1       -0.2736
     10 N          62.6439   90.4923    9.8170 N.am    1  UNL1       -0.2961
     11 H          63.1958   90.2775    9.0305 H       1  UNL1        0.1497
     12 C          63.2972   90.9249   11.0960 C.3     1  UNL1        0.1939
     13 C          64.2314   92.0985   11.1014 C.3     1  UNL1        0.4154
     14 F          65.1656   93.2721   11.1068 F       1  UNL1       -0.1682
     15 F          63.8961   92.3589   12.5400 F       1  UNL1       -0.1682
     16 F          64.5668   91.8382    9.6628 F       1  UNL1       -0.1682
     17 C          61.4997   90.8861    4.6007 C.3     1  UNL1        0.0255
     18 C          60.0490   91.2446    4.7311 C.3     1  UNL1        0.1147
     19 C          58.5983   91.6031    4.8615 C.3     1  UNL1        0.0255
     20 C          60.1519   92.1062    3.5075 C.ar    1  UNL1        0.2185
     21 N          59.0078   92.7593    2.7903 N.ar    1  UNL1       -0.2094
     22 C          59.5658   93.5227    1.6258 C.ar    1  UNL1        0.1392
     23 C          61.0548   93.3413    1.6234 C.ar    1  UNL1        0.1659
     24 O          61.4170   92.4659    2.7863 O.2     1  UNL1       -0.4370
     25 C          62.0132   93.9317    0.6321 C.ar    1  UNL1        0.0362
     26 C          61.5631   94.2122   -0.7711 C.ar    1  UNL1        0.0039
     27 C          62.5216   94.8026   -1.7623 C.ar    1  UNL1        0.0115
     28 C          63.9302   95.1125   -1.3505 C.ar    1  UNL1        0.0577
     29 CL         64.8888   95.7030   -2.3418 Cl      1  UNL1       -0.0822
     30 C          64.3804   94.8321    0.0527 C.ar    1  UNL1        0.0115
     31 C          63.4219   94.2417    1.0439 C.ar    1  UNL1        0.0039
     32 C          60.8810   87.3540   10.3365 C.3     1  UNL1        0.1269
     33 O          62.0147   86.7524    9.5600 O.3     1  UNL1       -0.3830
     34 H          62.7356   86.5217   10.1667 H       1  UNL1        0.2104
     35 C          60.9910   87.5112   11.8242 C.3     1  UNL1        0.0402
     36 C          62.3389   87.6644   12.4645 C.3     1  UNL1        0.0864
     37 C          62.6099   88.8269   13.3729 C.2     1  UNL1        0.2228
     38 O          61.5508   89.8649   13.5989 O.2     1  UNL1       -0.2751
     39 N          63.9398   88.9514   14.0553 N.am    1  UNL1       -0.2999
     40 H          64.6349   88.2701   13.9070 H       1  UNL1        0.1498
     41 C          64.2108   90.1139   14.9637 C.3     1  UNL1        0.1278
     42 C          65.3572   91.0380   14.6775 C.ar    1  UNL1        0.0320
     43 C          66.2325   90.7997   13.4830 C.ar    1  UNL1        0.0004
     44 C          67.3788   91.7238   13.1969 C.ar    1  UNL1       -0.0001
     45 C          67.6498   92.8863   14.1053 C.ar    1  UNL1        0.0031
     46 C          66.7745   93.1247   15.2998 C.ar    1  UNL1        0.0366
     47 C          65.6282   92.2005   15.5859 C.ar    1  UNL1        0.1362
     48 O          64.7527   92.4388   16.7805 O.3     1  UNL1       -0.4730
     49 C          63.6064   91.5147   17.0666 C.3     1  UNL1        0.2364
     50 C          63.3355   90.3522   16.1582 C.3     1  UNL1        0.1762
     51 O          62.1891   89.4281   16.4444 O.3     1  UNL1       -0.3788
     52 H          61.7293   89.7220   17.2463 H       1  UNL1        0.2106
     53 C          63.4156   86.6552   12.1964 C.3     1  UNL1        0.0737
     54 C          63.1777   85.2057   12.5010 C.ar    1  UNL1        0.1234
     55 C          63.3552   84.0633   11.5452 C.ar    1  UNL1        0.0361
     56 C          63.0078   82.7958   12.2682 C.ar    1  UNL1        0.0404
     57 C          62.9979   81.3611   11.8306 C.ar    1  UNL1        0.0238
     58 C          62.5958   80.2855   12.7957 C.ar    1  UNL1        0.0991
     59 N          62.2036   80.6445   14.1982 N.ar    1  UNL1       -0.2391
     60 C          62.2135   82.0793   14.6359 C.ar    1  UNL1        0.1362
     61 C          62.6156   83.1549   13.6708 C.ar    1  UNL1        0.1639
     62 O          62.7206   84.6443   13.8147 O.2     1  UNL1       -0.4562
@<TRIPOS>BOND
     1    17    18    1
     2    18    19    1
     3    18    20    1
     4    20    21   ar
     5    21    22   ar
     6    22    23   ar
     7    23    25    1
     8    25    26   ar
     9    26    27   ar
    10    27    28   ar
    11    28    29    1
    12    28    30   ar
    13    30    31   ar
    14    23    24   ar
    15    18     2    1
    16     2     3    1
    17     3     4    1
    18     4     5    1
    19     5     1    1
    20     1    32    1
    21    32    33    1
    22    32    35    1
    23    36    35    1
    24    36    53    1
    25    53    54    1
    26    54    55   ar
    27    55    56   ar
    28    56    57   ar
    29    57    58   ar
    30    58    59   ar
    31    59    60   ar
    32    60    61   ar
    33    61    62   ar
    34    36    37    1
    35    37    38    2
    36    37    39   am
    37    41    39    1
    38    41    42    1
    39    42    43   ar
    40    43    44   ar
    41    44    45   ar
    42    45    46   ar
    43    46    47   ar
    44    47    48    1
    45    48    49    1
    46    49    50    1
    47    50    51    1
    48     5     6    1
    49     6     8    1
    50     8     9    2
    51     8    10   am
    52    10    12    1
    53    12    13    1
    54    13    14    1
    55    13    15    1
    56    13    16    1
    57     6     7    1
    58    24    20   ar
    59     7     2    1
    60    31    25   ar
    61    62    54   ar
    62    50    41    1
    63    61    56   ar
    64    47    42   ar
    65    33    34    1
    66    39    40    1
    67    51    52    1
    68    10    11    1
@<TRIPOS>MOLECULE
*****
 62 68 0 0 0
SMALL
GASTEIGER

@<TRIPOS>ATOM
      1 C          59.7580   87.8194   10.2767 C.3     1  UNL1        0.1021
      2 N          59.8921   90.1385    6.4227 N.3     1  UNL1       -0.2650
      3 C          59.4646   90.8157    7.6910 C.3     1  UNL1        0.0900
      4 C          59.4199   90.0426    8.9756 C.3     1  UNL1        0.0901
      5 N          59.8027   88.5924    8.9920 N.3     1  UNL1       -0.2621
      6 C          60.2302   87.9152    7.7237 C.3     1  UNL1        0.1510
      7 C          60.2749   88.6883    6.4390 C.3     1  UNL1        0.0980
      8 C          60.6130   86.4649    7.7400 C.2     1  UNL1        0.2386
      9 O          59.6667   85.4334    7.2010 O.2     1  UNL1       -0.2736
     10 N          61.9420   86.0463    8.2954 N.am    1  UNL1       -0.2961
     11 H          62.5630   86.7233    8.6491 H       1  UNL1        0.1497
     12 C          62.3247   84.5961    8.3117 C.3     1  UNL1        0.1939
     13 C          63.5002   84.1397    9.1242 C.3     1  UNL1        0.4154
     14 F          64.6756   83.6833    9.9366 F       1  UNL1       -0.1682
     15 F          62.7368   82.9181    9.5425 F       1  UNL1       -0.1682
     16 F          64.2636   85.3612    8.7058 F       1  UNL1       -0.1682
     17 C          61.4206   90.7044    5.0650 C.3     1  UNL1        0.0255
     18 C          59.9368   90.9115    5.1380 C.3     1  UNL1        0.1147
     19 C          58.4529   91.1186    5.2110 C.3     1  UNL1        0.0255
     20 C          59.9815   91.6846    3.8533 C.ar    1  UNL1        0.2185
     21 N          58.8464   92.4569    3.2491 N.ar    1  UNL1       -0.2094
     22 C          59.3325   93.0707    1.9696 C.ar    1  UNL1        0.1392
     23 C          60.7680   92.6777    1.7831 C.ar    1  UNL1        0.1659
     24 O          61.1691   91.8210    2.9472 O.2     1  UNL1       -0.4370
     25 C          61.6480   93.0720    0.6341 C.ar    1  UNL1        0.0362
     26 C          61.0857   93.1316   -0.7553 C.ar    1  UNL1        0.0039
     27 C          61.9657   93.5259   -1.9041 C.ar    1  UNL1        0.0115
     28 C          63.4079   93.8608   -1.6637 C.ar    1  UNL1        0.0577
     29 CL         64.2880   94.2552   -2.8127 Cl      1  UNL1       -0.0822
     30 C          63.9702   93.8013   -0.2743 C.ar    1  UNL1        0.0115
     31 C          63.0902   93.4069    0.8745 C.ar    1  UNL1        0.0039
     32 C          59.7351   88.5459   11.5888 C.3     1  UNL1        0.1269
     33 O          58.7352   88.1645   12.6400 O.3     1  UNL1       -0.3830
     34 H          58.8556   88.7280   13.4203 H       1  UNL1        0.2104
     35 C          60.7120   89.6538   11.8498 C.3     1  UNL1        0.0402
     36 C          62.1754   89.3493   11.9753 C.3     1  UNL1        0.0864
     37 C          63.0706   90.2743   12.7454 C.2     1  UNL1        0.2228
     38 O          62.7542   90.6079   14.1732 O.2     1  UNL1       -0.2751
     39 N          64.2821   90.8656   12.0877 N.am    1  UNL1       -0.2999
     40 H          64.4898   90.6466   11.1506 H       1  UNL1        0.1498
     41 C          65.1773   91.7905   12.8578 C.3     1  UNL1        0.1278
     42 C          65.5448   93.1276   12.2856 C.ar    1  UNL1        0.0320
     43 C          65.0171   93.5396   10.9433 C.ar    1  UNL1        0.0004
     44 C          65.3846   94.8765   10.3712 C.ar    1  UNL1       -0.0001
     45 C          66.2798   95.8015   11.1413 C.ar    1  UNL1        0.0031
     46 C          66.8075   95.3895   12.4836 C.ar    1  UNL1        0.0366
     47 C          66.4400   94.0526   13.0557 C.ar    1  UNL1        0.1362
     48 O          66.9677   93.6405   14.3981 O.3     1  UNL1       -0.4730
     49 C          66.6002   92.3035   14.9702 C.3     1  UNL1        0.2364
     50 C          65.7050   91.3785   14.2001 C.3     1  UNL1        0.1762
     51 O          65.3375   90.0415   14.7724 O.3     1  UNL1       -0.3788
     52 H          65.7592   89.9339   15.6393 H       1  UNL1        0.2106
     53 C          62.7436   88.1198   11.3306 C.3     1  UNL1        0.0737
     54 C          62.9451   86.8733   12.1404 C.ar    1  UNL1        0.1234
     55 C          62.4283   85.5071   11.7991 C.ar    1  UNL1        0.0361
     56 C          62.8625   84.5636   12.8814 C.ar    1  UNL1        0.0404
     57 C          62.6444   83.0926   13.0775 C.ar    1  UNL1        0.0238
     58 C          63.2114   82.4046   14.2839 C.ar    1  UNL1        0.0991
     59 N          63.9966   83.1876   15.2940 N.ar    1  UNL1       -0.2391
     60 C          64.2147   84.6587   15.0978 C.ar    1  UNL1        0.1362
     61 C          63.6477   85.3467   13.8915 C.ar    1  UNL1        0.1639
     62 O          63.6987   86.7742   13.4336 O.2     1  UNL1       -0.4562
@<TRIPOS>BOND
     1    17    18    1
     2    18    19    1
     3    18    20    1
     4    20    21   ar
     5    21    22   ar
     6    22    23   ar
     7    23    25    1
     8    25    26   ar
     9    26    27   ar
    10    27    28   ar
    11    28    29    1
    12    28    30   ar
    13    30    31   ar
    14    23    24   ar
    15    18     2    1
    16     2     3    1
    17     3     4    1
    18     4     5    1
    19     5     1    1
    20     1    32    1
    21    32    33    1
    22    32    35    1
    23    36    35    1
    24    36    53    1
    25    53    54    1
    26    54    55   ar
    27    55    56   ar
    28    56    57   ar
    29    57    58   ar
    30    58    59   ar
    31    59    60   ar
    32    60    61   ar
    33    61    62   ar
    34    36    37    1
    35    37    38    2
    36    37    39   am
    37    41    39    1
    38    41    42    1
    39    42    43   ar
    40    43    44   ar
    41    44    45   ar
    42    45    46   ar
    43    46    47   ar
    44    47    48    1
    45    48    49    1
    46    49    50    1
    47    50    51    1
    48     5     6    1
    49     6     8    1
    50     8     9    2
    51     8    10   am
    52    10    12    1
    53    12    13    1
    54    13    14    1
    55    13    15    1
    56    13    16    1
    57     6     7    1
    58    24    20   ar
    59     7     2    1
    60    31    25   ar
    61    62    54   ar
    62    50    41    1
    63    61    56   ar
    64    47    42   ar
    65    33    34    1
    66    39    40    1
    67    51    52    1
    68    10    11    1
@<TRIPOS>MOLECULE
*****
 62 68 0 0 0
SMALL
GASTEIGER

@<TRIPOS>ATOM
      1 C          59.4741   88.1443    9.7454 C.3     1  UNL1        0.1021
      2 N          59.8108   90.5038    5.9284 N.3     1  UNL1       -0.2650
      3 C          59.4736   91.2002    7.2134 C.3     1  UNL1        0.0900
      4 C          59.3614   90.4137    8.4857 C.3     1  UNL1        0.0901
      5 N          59.5863   88.9308    8.4730 N.3     1  UNL1       -0.2621
      6 C          59.9235   88.2343    7.1881 C.3     1  UNL1        0.1510
      7 C          60.0357   89.0208    5.9157 C.3     1  UNL1        0.0980
      8 C          60.1484   86.7513    7.1753 C.2     1  UNL1        0.2386
      9 O          58.9766   85.8152    7.1545 O.2     1  UNL1       -0.2736
     10 N          61.5451   86.2045    7.1834 N.am    1  UNL1       -0.2961
     11 H          62.3143   86.8189    7.1971 H       1  UNL1        0.1497
     12 C          61.7700   84.7215    7.1707 C.3     1  UNL1        0.1939
     13 C          61.9222   83.9971    5.8660 C.3     1  UNL1        0.4154
     14 F          62.0744   83.2728    4.5614 F       1  UNL1       -0.1682
     15 F          63.3368   84.4847    5.7603 F       1  UNL1       -0.1682
     16 F          60.5077   83.5096    5.9717 F       1  UNL1       -0.1682
     17 C          61.3883   90.9761    4.5911 C.3     1  UNL1        0.0255
     18 C          59.9230   91.2903    4.6561 C.3     1  UNL1        0.1147
     19 C          58.4577   91.6045    4.7210 C.3     1  UNL1        0.0255
     20 C          60.0352   92.0768    3.3838 C.ar    1  UNL1        0.2185
     21 N          58.8938   92.6552    2.6012 N.ar    1  UNL1       -0.2094
     22 C          59.4617   93.3589    1.4044 C.ar    1  UNL1        0.1392
     23 C          60.9542   93.2154    1.4473 C.ar    1  UNL1        0.1659
     24 O          61.3086   92.4230    2.6706 O.2     1  UNL1       -0.4370
     25 C          61.9223   93.7673    0.4432 C.ar    1  UNL1        0.0362
     26 C          62.9488   94.7757    0.8668 C.ar    1  UNL1        0.0039
     27 C          63.9169   95.3275   -0.1373 C.ar    1  UNL1        0.0115
     28 C          63.8584   94.8711   -1.5650 C.ar    1  UNL1        0.0577
     29 CL         64.8265   95.4230   -2.5691 Cl      1  UNL1       -0.0822
     30 C          62.8318   93.8628   -1.9885 C.ar    1  UNL1        0.0115
     31 C          61.8638   93.3109   -0.9845 C.ar    1  UNL1        0.0039
     32 C          60.0186   88.7063   11.0250 C.3     1  UNL1        0.1269
     33 O          59.9276   90.1788   11.2962 O.3     1  UNL1       -0.3830
     34 H          60.3234   90.3735   12.1601 H       1  UNL1        0.2104
     35 C          60.6543   87.7958   12.0335 C.3     1  UNL1        0.0402
     36 C          62.1350   87.5578   12.0010 C.3     1  UNL1        0.0864
     37 C          63.0572   88.4641   12.7614 C.2     1  UNL1        0.2228
     38 O          64.1393   87.8823   13.6219 O.2     1  UNL1       -0.2751
     39 N          62.8972   89.9522   12.6613 N.am    1  UNL1       -0.2999
     40 H          62.1869   90.3340   12.0965 H       1  UNL1        0.1498
     41 C          63.8194   90.8585   13.4216 C.3     1  UNL1        0.1278
     42 C          64.6957   91.8270   12.6840 C.ar    1  UNL1        0.0320
     43 C          64.6498   91.8892   11.1860 C.ar    1  UNL1        0.0004
     44 C          65.5261   92.8577   10.4484 C.ar    1  UNL1       -0.0001
     45 C          66.4483   93.7640   11.2088 C.ar    1  UNL1        0.0031
     46 C          66.4942   93.7018   12.7068 C.ar    1  UNL1        0.0366
     47 C          65.6179   92.7333   13.4444 C.ar    1  UNL1        0.1362
     48 O          65.6638   92.6711   14.9424 O.3     1  UNL1       -0.4730
     49 C          64.7875   91.7026   15.6800 C.3     1  UNL1        0.2364
     50 C          63.8653   90.7963   14.9196 C.3     1  UNL1        0.1762
     51 O          62.9890   89.8278   15.6573 O.3     1  UNL1       -0.3788
     52 H          63.1409   89.9161   16.6112 H       1  UNL1        0.2106
     53 C          62.6934   86.4136   11.2080 C.3     1  UNL1        0.0737
     54 C          62.6677   85.0250   11.7749 C.ar    1  UNL1        0.1234
     55 C          62.8745   83.7544   11.0050 C.ar    1  UNL1        0.0361
     56 C          62.7654   82.6074   11.9654 C.ar    1  UNL1        0.0404
     57 C          62.8803   81.1241   11.7746 C.ar    1  UNL1        0.0238
     58 C          62.7210   80.2024   12.9473 C.ar    1  UNL1        0.0991
     59 N          62.4467   80.7641   14.3108 N.ar    1  UNL1       -0.2391
     60 C          62.3318   82.2475   14.5017 C.ar    1  UNL1        0.1362
     61 C          62.4911   83.1692   13.3290 C.ar    1  UNL1        0.1639
     62 O          62.4308   84.6633   13.2112 O.2     1  UNL1       -0.4562
@<TRIPOS>BOND
     1    17    18    1
     2    18    19    1
     3    18    20    1
     4    20    21   ar
     5    21    22   ar
     6    22    23   ar
     7    23    25    1
     8    25    26   ar
     9    26    27   ar
    10    27    28   ar
    11    28    29    1
    12    28    30   ar
    13    30    31   ar
    14    23    24   ar
    15    18     2    1
    16     2     3    1
    17     3     4    1
    18     4     5    1
    19     5     1    1
    20     1    32    1
    21    32    33    1
    22    32    35    1
    23    36    35    1
    24    36    53    1
    25    53    54    1
    26    54    55   ar
    27    55    56   ar
    28    56    57   ar
    29    57    58   ar
    30    58    59   ar
    31    59    60   ar
    32    60    61   ar
    33    61    62   ar
    34    36    37    1
    35    37    38    2
    36    37    39   am
    37    41    39    1
    38    41    42    1
    39    42    43   ar
    40    43    44   ar
    41    44    45   ar
    42    45    46   ar
    43    46    47   ar
    44    47    48    1
    45    48    49    1
    46    49    50    1
    47    50    51    1
    48     5     6    1
    49     6     8    1
    50     8     9    2
    51     8    10   am
    52    10    12    1
    53    12    13    1
    54    13    14    1
    55    13    15    1
    56    13    16    1
    57     6     7    1
    58    24    20   ar
    59     7     2    1
    60    31    25   ar
    61    62    54   ar
    62    50    41    1
    63    61    56   ar
    64    47    42   ar
    65    33    34    1
    66    39    40    1
    67    51    52    1
    68    10    11    1
@<TRIPOS>MOLECULE
*****
 62 68 0 0 0
SMALL
GASTEIGER

@<TRIPOS>ATOM
      1 C          59.4381   88.1471    9.7098 C.3     1  UNL1        0.1021
      2 N          59.7920   90.5162    5.9003 N.3     1  UNL1       -0.2650
      3 C          59.4291   91.2063    7.1817 C.3     1  UNL1        0.0900
      4 C          59.3111   90.4166    8.4515 C.3     1  UNL1        0.0901
      5 N          59.5560   88.9368    8.4399 N.3     1  UNL1       -0.2621
      6 C          59.9190   88.2467    7.1585 C.3     1  UNL1        0.1510
      7 C          60.0370   89.0364    5.8887 C.3     1  UNL1        0.0980
      8 C          60.1639   86.7669    7.1469 C.2     1  UNL1        0.2386
      9 O          59.0048   85.8149    7.1351 O.2     1  UNL1       -0.2736
     10 N          61.5680   86.2390    7.1471 N.am    1  UNL1       -0.2961
     11 H          62.3288   86.8639    7.1548 H       1  UNL1        0.1497
     12 C          61.8129   84.7593    7.1354 C.3     1  UNL1        0.1939
     13 C          61.9355   84.0295    5.8306 C.3     1  UNL1        0.4154
     14 F          62.0582   83.2999    4.5258 F       1  UNL1       -0.1682
     15 F          60.5236   83.5427    5.9701 F       1  UNL1       -0.1682
     16 F          63.3474   84.5163    5.6911 F       1  UNL1       -0.1682
     17 C          58.4638   91.6901    4.7350 C.3     1  UNL1        0.0255
     18 C          59.9100   91.3059    4.6305 C.3     1  UNL1        0.1147
     19 C          61.3562   90.9218    4.5260 C.3     1  UNL1        0.0255
     20 C          60.0280   92.0956    3.3607 C.ar    1  UNL1        0.2185
     21 N          61.2985   92.6320    2.7708 N.ar    1  UNL1       -0.2094
     22 C          60.9519   93.3555    1.5033 C.ar    1  UNL1        0.1392
     23 C          59.4671   93.2663    1.3099 C.ar    1  UNL1        0.1659
     24 O          58.8961   92.4877    2.4578 O.2     1  UNL1       -0.4370
     25 C          58.6898   93.8528    0.1689 C.ar    1  UNL1        0.0362
     26 C          58.8802   95.2924   -0.2069 C.ar    1  UNL1        0.0039
     27 C          58.1029   95.8788   -1.3478 C.ar    1  UNL1        0.0115
     28 C          57.1352   95.0256   -2.1130 C.ar    1  UNL1        0.0577
     29 CL         56.3578   95.6120   -3.2541 Cl      1  UNL1       -0.0822
     30 C          56.9448   93.5859   -1.7372 C.ar    1  UNL1        0.0115
     31 C          57.7221   92.9995   -0.5963 C.ar    1  UNL1        0.0039
     32 C          59.9928   88.6980   10.9899 C.3     1  UNL1        0.1269
     33 O          59.9197   90.1705   11.2667 O.3     1  UNL1       -0.3830
     34 H          60.3202   90.3574   12.1301 H       1  UNL1        0.2104
     35 C          60.6206   87.7765   11.9932 C.3     1  UNL1        0.0402
     36 C          62.0997   87.5289   11.9616 C.3     1  UNL1        0.0864
     37 C          63.0271   88.4279   12.7243 C.2     1  UNL1        0.2228
     38 O          64.1131   87.8378   13.5744 O.2     1  UNL1       -0.2751
     39 N          62.8686   89.9169   12.6369 N.am    1  UNL1       -0.2999
     40 H          62.1559   90.3042   12.0790 H       1  UNL1        0.1498
     41 C          63.7960   90.8159   13.3996 C.3     1  UNL1        0.1278
     42 C          64.6741   91.7850   12.6646 C.ar    1  UNL1        0.0320
     43 C          64.6247   91.8549   11.1671 C.ar    1  UNL1        0.0004
     44 C          65.5028   92.8239   10.4323 C.ar    1  UNL1       -0.0001
     45 C          66.4302   93.7229   11.1950 C.ar    1  UNL1        0.0031
     46 C          66.4795   93.6530   12.6925 C.ar    1  UNL1        0.0366
     47 C          65.6015   92.6840   13.4273 C.ar    1  UNL1        0.1362
     48 O          65.6508   92.6140   14.9249 O.3     1  UNL1       -0.4730
     49 C          64.7727   91.6450   15.6598 C.3     1  UNL1        0.2364
     50 C          63.8453   90.7460   14.8971 C.3     1  UNL1        0.1762
     51 O          62.9672   89.7770   15.6320 O.3     1  UNL1       -0.3788
     52 H          63.1218   89.8599   16.5860 H       1  UNL1        0.2106
     53 C          62.6514   86.3823   11.1673 C.3     1  UNL1        0.0737
     54 C          62.6453   84.9980   11.7450 C.ar    1  UNL1        0.1234
     55 C          62.8636   83.7240   10.9838 C.ar    1  UNL1        0.0361
     56 C          62.7730   82.5832   11.9536 C.ar    1  UNL1        0.0404
     57 C          62.9049   81.1000   11.7736 C.ar    1  UNL1        0.0238
     58 C          62.7625   80.1856   12.9541 C.ar    1  UNL1        0.0991
     59 N          62.4882   80.7545   14.3146 N.ar    1  UNL1       -0.2391
     60 C          62.3563   82.2379   14.4947 C.ar    1  UNL1        0.1362
     61 C          62.4987   83.1522   13.3141 C.ar    1  UNL1        0.1639
     62 O          62.4198   84.6446   13.1852 O.2     1  UNL1       -0.4562
@<TRIPOS>BOND
     1    17    18    1
     2    18    19    1
     3    18    20    1
     4    20    21   ar
     5    21    22   ar
     6    22    23   ar
     7    23    25    1
     8    25    26   ar
     9    26    27   ar
    10    27    28   ar
    11    28    29    1
    12    28    30   ar
    13    30    31   ar
    14    23    24   ar
    15    18     2    1
    16     2     3    1
    17     3     4    1
    18     4     5    1
    19     5     1    1
    20     1    32    1
    21    32    33    1
    22    32    35    1
    23    36    35    1
    24    36    53    1
    25    53    54    1
    26    54    55   ar
    27    55    56   ar
    28    56    57   ar
    29    57    58   ar
    30    58    59   ar
    31    59    60   ar
    32    60    61   ar
    33    61    62   ar
    34    36    37    1
    35    37    38    2
    36    37    39   am
    37    41    39    1
    38    41    42    1
    39    42    43   ar
    40    43    44   ar
    41    44    45   ar
    42    45    46   ar
    43    46    47   ar
    44    47    48    1
    45    48    49    1
    46    49    50    1
    47    50    51    1
    48     5     6    1
    49     6     8    1
    50     8     9    2
    51     8    10   am
    52    10    12    1
    53    12    13    1
    54    13    14    1
    55    13    15    1
    56    13    16    1
    57     6     7    1
    58    24    20   ar
    59     7     2    1
    60    31    25   ar
    61    62    54   ar
    62    50    41    1
    63    61    56   ar
    64    47    42   ar
    65    33    34    1
    66    39    40    1
    67    51    52    1
    68    10    11    1
@<TRIPOS>MOLECULE
*****
 62 68 0 0 0
SMALL
GASTEIGER

@<TRIPOS>ATOM
      1 C          59.7275   87.8866    9.9518 C.3     1  UNL1        0.1021
      2 N          59.9022   90.3701    6.2033 N.3     1  UNL1       -0.2650
      3 C          59.6643   91.0295    7.5294 C.3     1  UNL1        0.0900
      4 C          59.6061   90.2016    8.7789 C.3     1  UNL1        0.0901
      5 N          59.7858   88.7144    8.7023 N.3     1  UNL1       -0.2621
      6 C          60.0237   88.0551    7.3762 C.3     1  UNL1        0.1510
      7 C          60.0819   88.8829    6.1267 C.3     1  UNL1        0.0980
      8 C          60.2033   86.5678    7.2996 C.2     1  UNL1        0.2386
      9 O          59.0037   85.6677    7.2746 O.2     1  UNL1       -0.2736
     10 N          61.5827   85.9807    7.2479 N.am    1  UNL1       -0.2961
     11 H          62.3701   86.5714    7.2643 H       1  UNL1        0.1497
     12 C          61.7623   84.4935    7.1712 C.3     1  UNL1        0.1939
     13 C          61.9448   83.8277    5.8395 C.3     1  UNL1        0.4154
     14 F          62.1273   83.1619    4.5078 F       1  UNL1       -0.1682
     15 F          60.5742   83.2286    5.9511 F       1  UNL1       -0.1682
     16 F          63.3154   84.4267    5.7279 F       1  UNL1       -0.1682
     17 C          58.4957   91.4945    5.0820 C.3     1  UNL1        0.0255
     18 C          59.9605   91.1980    4.9538 C.3     1  UNL1        0.1147
     19 C          61.4253   90.9014    4.8256 C.3     1  UNL1        0.0255
     20 C          60.0187   92.0258    3.7043 C.ar    1  UNL1        0.2185
     21 N          58.8431   92.6064    2.9757 N.ar    1  UNL1       -0.2094
     22 C          59.3606   93.3578    1.7851 C.ar    1  UNL1        0.1392
     23 C          60.8560   93.2417    1.7778 C.ar    1  UNL1        0.1659
     24 O          61.2628   92.4185    2.9640 O.2     1  UNL1       -0.4370
     25 C          61.7822   93.8431    0.7627 C.ar    1  UNL1        0.0362
     26 C          61.6891   93.4289   -0.6759 C.ar    1  UNL1        0.0039
     27 C          62.6153   94.0303   -1.6910 C.ar    1  UNL1        0.0115
     28 C          63.6345   95.0461   -1.2674 C.ar    1  UNL1        0.0577
     29 CL         64.5607   95.6476   -2.2825 Cl      1  UNL1       -0.0822
     30 C          63.7276   95.4604    0.1713 C.ar    1  UNL1        0.0115
     31 C          62.8014   94.8589    1.1863 C.ar    1  UNL1        0.0039
     32 C          60.3484   88.3960   11.2187 C.3     1  UNL1        0.1269
     33 O          59.5194   88.5219   12.4625 O.3     1  UNL1       -0.3830
     34 H          60.0697   88.8634   13.1846 H       1  UNL1        0.2104
     35 C          61.7984   88.7796   11.2418 C.3     1  UNL1        0.0402
     36 C          62.5667   88.7308   12.5292 C.3     1  UNL1        0.0864
     37 C          63.0734   87.4189   13.0510 C.2     1  UNL1        0.2228
     38 O          64.3119   87.3759   13.8963 O.2     1  UNL1       -0.2751
     39 N          62.3418   86.1501   12.7274 N.am    1  UNL1       -0.2999
     40 H          61.5289   86.1783   12.1726 H       1  UNL1        0.1498
     41 C          62.8485   84.8382   13.2491 C.3     1  UNL1        0.1278
     42 C          63.3007   83.7749   12.2925 C.ar    1  UNL1        0.0320
     43 C          63.2461   84.0235   10.8143 C.ar    1  UNL1        0.0004
     44 C          63.6983   82.9602    9.8578 C.ar    1  UNL1       -0.0001
     45 C          64.2050   81.6483   10.3796 C.ar    1  UNL1        0.0031
     46 C          64.2596   81.3997   11.8578 C.ar    1  UNL1        0.0366
     47 C          63.8074   82.4630   12.8143 C.ar    1  UNL1        0.1362
     48 O          63.8620   82.2144   14.2926 O.3     1  UNL1       -0.4730
     49 C          63.4098   83.2777   15.2491 C.3     1  UNL1        0.2364
     50 C          62.9031   84.5896   14.7274 C.3     1  UNL1        0.1762
     51 O          62.4509   85.6529   15.6839 O.3     1  UNL1       -0.3788
     52 H          62.5510   85.3328   16.5941 H       1  UNL1        0.2106
     53 C          62.8281   89.9938   13.2949 C.3     1  UNL1        0.0737
     54 C          63.7619   91.0280   12.7393 C.ar    1  UNL1        0.1234
     55 C          63.9894   91.3207   11.2858 C.ar    1  UNL1        0.0361
     56 C          65.0001   92.4246   11.1878 C.ar    1  UNL1        0.0404
     57 C          65.6101   93.1254   10.0102 C.ar    1  UNL1        0.0238
     58 C          66.6174   94.2158   10.2256 C.ar    1  UNL1        0.0991
     59 N          67.0147   94.6055   11.6185 N.ar    1  UNL1       -0.2391
     60 C          66.4047   93.9047   12.7962 C.ar    1  UNL1        0.1362
     61 C          65.3974   92.8142   12.5809 C.ar    1  UNL1        0.1639
     62 O          64.6321   91.9511   13.5397 O.2     1  UNL1       -0.4562
@<TRIPOS>BOND
     1    17    18    1
     2    18    19    1
     3    18    20    1
     4    20    21   ar
     5    21    22   ar
     6    22    23   ar
     7    23    25    1
     8    25    26   ar
     9    26    27   ar
    10    27    28   ar
    11    28    29    1
    12    28    30   ar
    13    30    31   ar
    14    23    24   ar
    15    18     2    1
    16     2     3    1
    17     3     4    1
    18     4     5    1
    19     5     1    1
    20     1    32    1
    21    32    33    1
    22    32    35    1
    23    36    35    1
    24    36    53    1
    25    53    54    1
    26    54    55   ar
    27    55    56   ar
    28    56    57   ar
    29    57    58   ar
    30    58    59   ar
    31    59    60   ar
    32    60    61   ar
    33    61    62   ar
    34    36    37    1
    35    37    38    2
    36    37    39   am
    37    41    39    1
    38    41    42    1
    39    42    43   ar
    40    43    44   ar
    41    44    45   ar
    42    45    46   ar
    43    46    47   ar
    44    47    48    1
    45    48    49    1
    46    49    50    1
    47    50    51    1
    48     5     6    1
    49     6     8    1
    50     8     9    2
    51     8    10   am
    52    10    12    1
    53    12    13    1
    54    13    14    1
    55    13    15    1
    56    13    16    1
    57     6     7    1
    58    24    20   ar
    59     7     2    1
    60    31    25   ar
    61    62    54   ar
    62    50    41    1
    63    61    56   ar
    64    47    42   ar
    65    33    34    1
    66    39    40    1
    67    51    52    1
    68    10    11    1
