@<TRIPOS>MOLECULE
*****
 34 38 0 0 0
SMALL
GASTEIGER

@<TRIPOS>ATOM
      1 N          64.6846   91.2337   14.1775 N.3     1  UNL1       -0.2703
      2 C          64.9213   89.9071   14.8364 C.3     1  UNL1        0.0727
      3 C          64.3763   88.6544   14.2171 C.3     1  UNL1        0.0260
      4 C          63.5946   88.7282   12.9391 C.3     1  UNL1        0.0737
      5 C          63.3578   90.0548   12.2802 C.3     1  UNL1        0.0260
      6 C          63.9029   91.3075   12.8995 C.3     1  UNL1        0.0727
      7 C          62.7985   88.6459   11.6704 C.3     1  UNL1        0.0306
      8 C          62.4618   87.2045   11.4270 C.3     1  UNL1        0.1001
      9 N          63.0498   86.3960   12.5453 N.am    1  UNL1       -0.2425
     10 C          63.7499   87.3376   13.4798 C.2     1  UNL1        0.2296
     11 O          64.4775   86.9558   14.7346 O.2     1  UNL1       -0.2745
     12 C          62.9545   84.9073   12.7016 C.ar    1  UNL1        0.1574
     13 C          62.5717   84.3151   14.0255 C.ar    1  UNL1        0.0414
     14 C          62.4764   82.8263   14.1818 C.ar    1  UNL1        0.0651
     15 C          62.7639   81.9297   13.0142 C.ar    1  UNL1        0.2766
     16 O          62.6686   80.4409   13.1706 O.2     1  UNL1       -0.2655
     17 N          63.1468   82.5218   11.6902 N.ar    1  UNL1       -0.2134
     18 C          63.4343   81.6251   10.5226 C.3     1  UNL1        0.1571
     19 N          63.2421   84.0106   11.5340 N.ar    1  UNL1       -0.1513
     20 C          65.2296   92.4866   14.7968 C.3     1  UNL1        0.1063
     21 C          66.5265   93.0613   14.3093 C.3     1  UNL1        0.1483
     22 O          67.6557   93.2862   15.2708 O.3     1  UNL1       -0.3786
     23 H          68.4146   93.6602   14.7964 H       1  UNL1        0.2108
     24 C          68.2550   91.3580   12.5454 C.3     1  UNL1        0.0306
     25 C          67.5586   92.5595   11.9784 C.ar    1  UNL1       -0.0238
     26 C          66.6943   93.4111   12.8603 C.ar    1  UNL1        0.0015
     27 C          65.9979   94.6125   12.2933 C.ar    1  UNL1       -0.0020
     28 C          66.1656   94.9623   10.8444 C.ar    1  UNL1        0.0060
     29 C          67.0298   94.1107    9.9624 C.ar    1  UNL1        0.0748
     30 C          67.7263   92.9093   10.5295 C.ar    1  UNL1        0.0233
     31 C          68.5082   92.2625    9.4248 C.3     1  UNL1        0.2352
     32 O          68.2950   93.0642    8.1750 O.3     1  UNL1       -0.4404
     33 C          67.3813   94.2064    8.5073 C.2     1  UNL1        0.3413
     34 O          66.9030   95.2595    7.5522 O.2     1  UNL1       -0.2449
@<TRIPOS>BOND
     1    24    25    1
     2    25    26   ar
     3    26    21    1
     4    21    22    1
     5    21    20    1
     6    20     1    1
     7     1     2    1
     8     2     3    1
     9     3     4    1
    10     4     5    1
    11     5     6    1
    12     4     7    1
    13     7     8    1
    14     8     9    1
    15     9    12    1
    16    12    13   ar
    17    13    14   ar
    18    14    15   ar
    19    15    16    2
    20    15    17   ar
    21    17    18    1
    22    17    19   ar
    23     9    10   am
    24    10    11    2
    25    26    27   ar
    26    27    28   ar
    27    28    29   ar
    28    29    30   ar
    29    30    31    1
    30    31    32    1
    31    32    33    1
    32    33    34    2
    33    30    25   ar
    34     6     1    1
    35    19    12   ar
    36    33    29    1
    37    10     4    1
    38    22    23    1
@<TRIPOS>MOLECULE
*****
 34 38 0 0 0
SMALL
GASTEIGER

@<TRIPOS>ATOM
      1 N          64.6301   91.2562   14.0545 N.3     1  UNL1       -0.2703
      2 C          64.8900   89.9410   14.7273 C.3     1  UNL1        0.0727
      3 C          64.3461   88.6750   14.1347 C.3     1  UNL1        0.0260
      4 C          63.5422   88.7241   12.8693 C.3     1  UNL1        0.0737
      5 C          63.2822   90.0392   12.1964 C.3     1  UNL1        0.0260
      6 C          63.8262   91.3053   12.7890 C.3     1  UNL1        0.0727
      7 C          62.7255   88.6172   11.6156 C.3     1  UNL1        0.0306
      8 C          62.3980   87.1696   11.3978 C.3     1  UNL1        0.1001
      9 N          63.0122   86.3819   12.5169 N.am    1  UNL1       -0.2425
     10 C          63.7193   87.3426   13.4263 C.2     1  UNL1        0.2296
     11 O          64.4716   86.9848   14.6737 O.2     1  UNL1       -0.2745
     12 C          62.9332   84.8947   12.6953 C.ar    1  UNL1        0.1574
     13 C          62.5834   84.3175   14.0348 C.ar    1  UNL1        0.0414
     14 C          62.5044   82.8302   14.2132 C.ar    1  UNL1        0.0651
     15 C          62.7751   81.9201   13.0520 C.ar    1  UNL1        0.2766
     16 O          62.6960   80.4329   13.2303 O.2     1  UNL1       -0.2655
     17 N          63.1249   82.4973   11.7123 N.ar    1  UNL1       -0.2134
     18 C          63.3956   81.5872   10.5511 C.3     1  UNL1        0.1571
     19 N          63.2039   83.9846   11.5340 N.ar    1  UNL1       -0.1513
     20 C          65.1740   92.5223   14.6471 C.3     1  UNL1        0.1063
     21 C          66.5611   92.9768   14.3013 C.3     1  UNL1        0.1483
     22 O          67.4442   93.5639   15.3621 O.3     1  UNL1       -0.3786
     23 H          68.3002   93.8038   14.9740 H       1  UNL1        0.2108
     24 C          65.9195   95.0914   12.2723 C.3     1  UNL1        0.0306
     25 C          66.7442   93.9014   11.8803 C.ar    1  UNL1       -0.0238
     26 C          67.0650   92.8441   12.8947 C.ar    1  UNL1        0.0015
     27 C          67.8897   91.6541   12.5026 C.ar    1  UNL1       -0.0020
     28 C          68.3937   91.5214   11.0961 C.ar    1  UNL1        0.0060
     29 C          68.0729   92.5787   10.0816 C.ar    1  UNL1        0.0748
     30 C          67.2482   93.7687   10.4737 C.ar    1  UNL1        0.0233
     31 C          67.0939   94.6442    9.2655 C.3     1  UNL1        0.2352
     32 O          67.8233   93.9953    8.1267 O.3     1  UNL1       -0.4404
     33 C          68.4283   92.7188    8.6311 C.2     1  UNL1        0.3413
     34 O          69.2454   91.7519    7.8263 O.2     1  UNL1       -0.2449
@<TRIPOS>BOND
     1    24    25    1
     2    25    26   ar
     3    26    21    1
     4    21    22    1
     5    21    20    1
     6    20     1    1
     7     1     2    1
     8     2     3    1
     9     3     4    1
    10     4     5    1
    11     5     6    1
    12     4     7    1
    13     7     8    1
    14     8     9    1
    15     9    12    1
    16    12    13   ar
    17    13    14   ar
    18    14    15   ar
    19    15    16    2
    20    15    17   ar
    21    17    18    1
    22    17    19   ar
    23     9    10   am
    24    10    11    2
    25    26    27   ar
    26    27    28   ar
    27    28    29   ar
    28    29    30   ar
    29    30    31    1
    30    31    32    1
    31    32    33    1
    32    33    34    2
    33    30    25   ar
    34     6     1    1
    35    19    12   ar
    36    33    29    1
    37    10     4    1
    38    22    23    1
@<TRIPOS>MOLECULE
*****
 34 38 0 0 0
SMALL
GASTEIGER

@<TRIPOS>ATOM
      1 N          64.8916   91.4938   14.4215 N.3     1  UNL1       -0.2703
      2 C          64.1470   91.6254   13.1261 C.3     1  UNL1        0.0727
      3 C          63.5694   90.4086   12.4660 C.3     1  UNL1        0.0260
      4 C          63.7365   89.0601   13.1014 C.3     1  UNL1        0.0737
      5 C          64.4811   88.9284   14.3968 C.3     1  UNL1        0.0260
      6 C          65.0587   90.1453   15.0569 C.3     1  UNL1        0.0727
      7 C          63.8229   87.6535   13.6152 C.3     1  UNL1        0.0306
      8 C          63.1110   86.7602   12.6429 C.3     1  UNL1        0.1001
      9 N          62.5846   87.6148   11.5281 N.am    1  UNL1       -0.2425
     10 C          62.9712   89.0361   11.8115 C.2     1  UNL1        0.2296
     11 O          62.6491   90.2249   10.9553 O.2     1  UNL1       -0.2745
     12 C          61.8080   87.1326   10.3389 C.ar    1  UNL1        0.1574
     13 C          60.3737   87.5363   10.1659 C.ar    1  UNL1        0.0414
     14 C          59.5971   87.0541    8.9766 C.ar    1  UNL1        0.0651
     15 C          60.2547   86.1683    7.9604 C.ar    1  UNL1        0.2766
     16 O          59.4781   85.6861    6.7711 O.2     1  UNL1       -0.2655
     17 N          61.6891   85.7646    8.1333 N.ar    1  UNL1       -0.2134
     18 C          62.3467   84.8788    7.1171 C.3     1  UNL1        0.1571
     19 N          62.4656   86.2468    9.3227 N.ar    1  UNL1       -0.1513
     20 C          65.4691   92.7106   15.0816 C.3     1  UNL1        0.1063
     21 C          66.7131   93.3431   14.5317 C.3     1  UNL1        0.1483
     22 O          67.8359   93.7154   15.4540 O.3     1  UNL1       -0.3786
     23 H          68.5585   94.1098   14.9410 H       1  UNL1        0.2108
     24 C          68.2365   91.4325   12.7912 C.3     1  UNL1        0.0306
     25 C          67.5960   92.6479   12.1892 C.ar    1  UNL1       -0.0238
     26 C          66.8343   93.6032   13.0593 C.ar    1  UNL1        0.0015
     27 C          66.1939   94.8186   12.4573 C.ar    1  UNL1       -0.0020
     28 C          66.3150   95.0788   10.9850 C.ar    1  UNL1        0.0060
     29 C          67.0767   94.1235   10.1148 C.ar    1  UNL1        0.0748
     30 C          67.7172   92.9081   10.7169 C.ar    1  UNL1        0.0233
     31 C          68.3999   92.1508    9.6167 C.3     1  UNL1        0.2352
     32 O          68.1814   92.8982    8.3346 O.3     1  UNL1       -0.4404
     33 C          67.3636   94.1174    8.6425 C.2     1  UNL1        0.3413
     34 O          66.9120   95.1493    7.6520 O.2     1  UNL1       -0.2449
@<TRIPOS>BOND
     1    24    25    1
     2    25    26   ar
     3    26    21    1
     4    21    22    1
     5    21    20    1
     6    20     1    1
     7     1     2    1
     8     2     3    1
     9     3     4    1
    10     4     5    1
    11     5     6    1
    12     4     7    1
    13     7     8    1
    14     8     9    1
    15     9    12    1
    16    12    13   ar
    17    13    14   ar
    18    14    15   ar
    19    15    16    2
    20    15    17   ar
    21    17    18    1
    22    17    19   ar
    23     9    10   am
    24    10    11    2
    25    26    27   ar
    26    27    28   ar
    27    28    29   ar
    28    29    30   ar
    29    30    31    1
    30    31    32    1
    31    32    33    1
    32    33    34    2
    33    30    25   ar
    34     6     1    1
    35    19    12   ar
    36    33    29    1
    37    10     4    1
    38    22    23    1
@<TRIPOS>MOLECULE
*****
 34 38 0 0 0
SMALL
GASTEIGER

@<TRIPOS>ATOM
      1 N          61.3345   89.2058   10.3571 N.3     1  UNL1       -0.2703
      2 C          62.0108   88.9578   11.6728 C.3     1  UNL1        0.0727
      3 C          63.1358   89.8451   12.1168 C.3     1  UNL1        0.0260
      4 C          63.5845   90.9803   11.2450 C.3     1  UNL1        0.0737
      5 C          62.9082   91.2282    9.9293 C.3     1  UNL1        0.0260
      6 C          61.7833   90.3410    9.4854 C.3     1  UNL1        0.0727
      7 C          64.1395   92.1479   10.4842 C.3     1  UNL1        0.0306
      8 C          65.2501   92.7450   11.2968 C.3     1  UNL1        0.1001
      9 N          65.3815   91.9464   12.5598 N.am    1  UNL1       -0.2425
     10 C          64.3521   90.8558   12.5278 C.2     1  UNL1        0.2296
     11 O          64.1294   89.8221   13.5917 O.2     1  UNL1       -0.2745
     12 C          66.3688   92.1948   13.6612 C.ar    1  UNL1        0.1574
     13 C          65.8847   92.4874   15.0505 C.ar    1  UNL1        0.0414
     14 C          66.8721   92.7358   16.1520 C.ar    1  UNL1        0.0651
     15 C          68.3436   92.6916   15.8643 C.ar    1  UNL1        0.2766
     16 O          69.3310   92.9400   16.9658 O.2     1  UNL1       -0.2655
     17 N          68.8278   92.3990   14.4750 N.ar    1  UNL1       -0.2134
     18 C          70.2992   92.3548   14.1873 C.3     1  UNL1        0.1571
     19 N          67.8403   92.1506   13.3735 N.ar    1  UNL1       -0.1513
     20 C          60.2095   88.3185    9.9131 C.3     1  UNL1        0.1063
     21 C          60.5019   86.9503    9.3725 C.3     1  UNL1        0.1483
     22 O          59.8878   86.5086    8.0772 O.3     1  UNL1       -0.3786
     23 H          60.1775   85.6056    7.8733 H       1  UNL1        0.2108
     24 C          62.4852   85.2558    7.8907 C.3     1  UNL1        0.0306
     25 C          62.4002   85.1764    9.3862 C.ar    1  UNL1       -0.0238
     26 C          61.4086   86.0236   10.1271 C.ar    1  UNL1        0.0015
     27 C          61.3236   85.9443   11.6226 C.ar    1  UNL1       -0.0020
     28 C          62.2302   85.0177   12.3772 C.ar    1  UNL1        0.0060
     29 C          63.2218   84.1705   11.6363 C.ar    1  UNL1        0.0748
     30 C          63.3068   84.2498   10.1408 C.ar    1  UNL1        0.0233
     31 C          64.3753   83.3003    9.6863 C.3     1  UNL1        0.2352
     32 O          64.9508   82.6341   10.9008 O.3     1  UNL1       -0.4404
     33 C          64.2378   83.1719   12.1060 C.2     1  UNL1        0.3413
     34 O          64.4956   82.7800   13.5307 O.2     1  UNL1       -0.2449
@<TRIPOS>BOND
     1    24    25    1
     2    25    26   ar
     3    26    21    1
     4    21    22    1
     5    21    20    1
     6    20     1    1
     7     1     2    1
     8     2     3    1
     9     3     4    1
    10     4     5    1
    11     5     6    1
    12     4     7    1
    13     7     8    1
    14     8     9    1
    15     9    12    1
    16    12    13   ar
    17    13    14   ar
    18    14    15   ar
    19    15    16    2
    20    15    17   ar
    21    17    18    1
    22    17    19   ar
    23     9    10   am
    24    10    11    2
    25    26    27   ar
    26    27    28   ar
    27    28    29   ar
    28    29    30   ar
    29    30    31    1
    30    31    32    1
    31    32    33    1
    32    33    34    2
    33    30    25   ar
    34     6     1    1
    35    19    12   ar
    36    33    29    1
    37    10     4    1
    38    22    23    1
@<TRIPOS>MOLECULE
*****
 34 38 0 0 0
SMALL
GASTEIGER

@<TRIPOS>ATOM
      1 N          64.6543   91.3798   14.1928 N.3     1  UNL1       -0.2703
      2 C          64.0914   91.4041   12.8027 C.3     1  UNL1        0.0727
      3 C          63.5944   90.1369   12.1726 C.3     1  UNL1        0.0260
      4 C          63.6604   88.8454   12.9326 C.3     1  UNL1        0.0737
      5 C          64.2233   88.8211   14.3227 C.3     1  UNL1        0.0260
      6 C          64.7203   90.0883   14.9528 C.3     1  UNL1        0.0727
      7 C          63.6620   87.4859   13.5665 C.3     1  UNL1        0.0306
      8 C          63.0771   86.5154   12.5836 C.3     1  UNL1        0.1001
      9 N          62.7140   87.2751   11.3421 N.am    1  UNL1       -0.2425
     10 C          63.0745   88.7151   11.5579 C.2     1  UNL1        0.2296
     11 O          62.8827   89.8292   10.5720 O.2     1  UNL1       -0.2745
     12 C          62.0985   86.6965   10.1027 C.ar    1  UNL1        0.1574
     13 C          62.8532   85.6842    9.2930 C.ar    1  UNL1        0.0414
     14 C          62.2377   85.1055    8.0535 C.ar    1  UNL1        0.0651
     15 C          60.8675   85.5391    7.6238 C.ar    1  UNL1        0.2766
     16 O          60.2520   84.9604    6.3843 O.2     1  UNL1       -0.2655
     17 N          60.1128   86.5514    8.4336 N.ar    1  UNL1       -0.2134
     18 C          58.7427   86.9851    8.0039 C.3     1  UNL1        0.1571
     19 N          60.7284   87.1301    9.6730 N.ar    1  UNL1       -0.1513
     20 C          65.1513   92.6471   14.8230 C.3     1  UNL1        0.1063
     21 C          66.4811   93.2131   14.4214 C.3     1  UNL1        0.1483
     22 O          67.3162   93.9512   15.4253 O.3     1  UNL1       -0.3786
     23 H          68.1384   94.2489   15.0056 H       1  UNL1        0.2108
     24 C          65.9255   95.3267   12.3661 C.3     1  UNL1        0.0306
     25 C          66.6981   94.0977   11.9882 C.ar    1  UNL1       -0.0238
     26 C          66.9759   93.0409   13.0158 C.ar    1  UNL1        0.0015
     27 C          67.7484   91.8120   12.6379 C.ar    1  UNL1       -0.0020
     28 C          68.2432   91.6398   11.2324 C.ar    1  UNL1        0.0060
     29 C          67.9654   92.6966   10.2048 C.ar    1  UNL1        0.0748
     30 C          67.1929   93.9255   10.5827 C.ar    1  UNL1        0.0233
     31 C          67.0733   94.7910    9.3634 C.3     1  UNL1        0.2352
     32 O          67.7719   94.0970    8.2320 O.3     1  UNL1       -0.4404
     33 C          68.3233   92.8026    8.7520 C.2     1  UNL1        0.3413
     34 O          69.0967   91.7916    7.9585 O.2     1  UNL1       -0.2449
@<TRIPOS>BOND
     1    24    25    1
     2    25    26   ar
     3    26    21    1
     4    21    22    1
     5    21    20    1
     6    20     1    1
     7     1     2    1
     8     2     3    1
     9     3     4    1
    10     4     5    1
    11     5     6    1
    12     4     7    1
    13     7     8    1
    14     8     9    1
    15     9    12    1
    16    12    13   ar
    17    13    14   ar
    18    14    15   ar
    19    15    16    2
    20    15    17   ar
    21    17    18    1
    22    17    19   ar
    23     9    10   am
    24    10    11    2
    25    26    27   ar
    26    27    28   ar
    27    28    29   ar
    28    29    30   ar
    29    30    31    1
    30    31    32    1
    31    32    33    1
    32    33    34    2
    33    30    25   ar
    34     6     1    1
    35    19    12   ar
    36    33    29    1
    37    10     4    1
    38    22    23    1
@<TRIPOS>MOLECULE
*****
 34 38 0 0 0
SMALL
GASTEIGER

@<TRIPOS>ATOM
      1 N          63.2500   85.2160   16.0114 N.3     1  UNL1       -0.2703
      2 C          64.0192   85.8272   14.8780 C.3     1  UNL1        0.0727
      3 C          64.2141   87.3133   14.8192 C.3     1  UNL1        0.0260
      4 C          63.6397   88.1882   15.8937 C.3     1  UNL1        0.0737
      5 C          62.8704   87.5769   17.0271 C.3     1  UNL1        0.0260
      6 C          62.6756   86.0908   17.0859 C.3     1  UNL1        0.0727
      7 C          63.1266   89.1848   16.8905 C.3     1  UNL1        0.0306
      8 C          63.5517   90.5513   16.4406 C.3     1  UNL1        0.1001
      9 N          64.3275   90.3990   15.1658 N.am    1  UNL1       -0.2425
     10 C          64.3819   88.9386   14.8278 C.2     1  UNL1        0.2296
     11 O          65.0594   88.3346   13.6337 O.2     1  UNL1       -0.2745
     12 C          64.9411   91.5118   14.3689 C.ar    1  UNL1        0.1574
     13 C          65.8720   92.4838   15.0313 C.ar    1  UNL1        0.0414
     14 C          66.4856   93.5966   14.2344 C.ar    1  UNL1        0.0651
     15 C          66.1684   93.7375   12.7751 C.ar    1  UNL1        0.2766
     16 O          66.7820   94.8504   11.9782 O.2     1  UNL1       -0.2655
     17 N          65.2375   92.7655   12.1127 N.ar    1  UNL1       -0.2134
     18 C          64.9203   92.9064   10.6534 C.3     1  UNL1        0.1571
     19 N          64.6239   91.6527   12.9097 N.ar    1  UNL1       -0.1513
     20 C          63.0551   83.7298   16.0702 C.3     1  UNL1        0.1063
     21 C          62.5469   82.9918   14.8673 C.3     1  UNL1        0.1483
     22 O          62.0105   81.5986   15.0134 O.3     1  UNL1       -0.3786
     23 H          61.7259   81.2692   14.1466 H       1  UNL1        0.2108
     24 C          64.0838   81.7324   12.6197 C.3     1  UNL1        0.0306
     25 C          63.3434   83.0173   12.3945 C.ar    1  UNL1       -0.0238
     26 C          62.5749   83.6470   13.5182 C.ar    1  UNL1        0.0015
     27 C          61.8345   84.9320   13.2930 C.ar    1  UNL1       -0.0020
     28 C          61.8625   85.5872   11.9440 C.ar    1  UNL1        0.0060
     29 C          62.6309   84.9575   10.8202 C.ar    1  UNL1        0.0748
     30 C          63.3714   83.6725   11.0455 C.ar    1  UNL1        0.0233
     31 C          64.0375   83.2895    9.7572 C.3     1  UNL1        0.2352
     32 O          63.7088   84.3377    8.7358 O.3     1  UNL1       -0.4404
     33 C          62.8395   85.3685    9.3928 C.2     1  UNL1        0.3413
     34 O          62.2774   86.5951    8.7374 O.2     1  UNL1       -0.2449
@<TRIPOS>BOND
     1    24    25    1
     2    25    26   ar
     3    26    21    1
     4    21    22    1
     5    21    20    1
     6    20     1    1
     7     1     2    1
     8     2     3    1
     9     3     4    1
    10     4     5    1
    11     5     6    1
    12     4     7    1
    13     7     8    1
    14     8     9    1
    15     9    12    1
    16    12    13   ar
    17    13    14   ar
    18    14    15   ar
    19    15    16    2
    20    15    17   ar
    21    17    18    1
    22    17    19   ar
    23     9    10   am
    24    10    11    2
    25    26    27   ar
    26    27    28   ar
    27    28    29   ar
    28    29    30   ar
    29    30    31    1
    30    31    32    1
    31    32    33    1
    32    33    34    2
    33    30    25   ar
    34     6     1    1
    35    19    12   ar
    36    33    29    1
    37    10     4    1
    38    22    23    1
@<TRIPOS>MOLECULE
*****
 34 38 0 0 0
SMALL
GASTEIGER

@<TRIPOS>ATOM
      1 N          64.5762   91.3474   15.2476 N.3     1  UNL1       -0.2703
      2 C          64.7284   90.3249   14.1607 C.3     1  UNL1        0.0727
      3 C          64.2974   88.9080   14.3983 C.3     1  UNL1        0.0260
      4 C          63.7142   88.5136   15.7228 C.3     1  UNL1        0.0737
      5 C          63.5620   89.5360   16.8097 C.3     1  UNL1        0.0260
      6 C          63.9930   90.9529   16.5721 C.3     1  UNL1        0.0727
      7 C          63.1173   87.9740   16.9888 C.3     1  UNL1        0.0306
      8 C          62.8386   86.5143   16.7846 C.3     1  UNL1        0.1001
      9 N          63.2632   86.1517   15.3923 N.am    1  UNL1       -0.2425
     10 C          63.8043   87.3872   14.7361 C.2     1  UNL1        0.2296
     11 O          64.3413   87.4803   13.3387 O.2     1  UNL1       -0.2745
     12 C          63.1640   84.7923   14.7663 C.ar    1  UNL1        0.1574
     13 C          62.3428   83.7224   15.4226 C.ar    1  UNL1        0.0414
     14 C          62.2437   82.3629   14.7965 C.ar    1  UNL1        0.0651
     15 C          62.9657   82.0733   13.5140 C.ar    1  UNL1        0.2766
     16 O          62.8666   80.7138   12.8879 O.2     1  UNL1       -0.2655
     17 N          63.7870   83.1433   12.8576 N.ar    1  UNL1       -0.2134
     18 C          64.5090   82.8538   11.5751 C.3     1  UNL1        0.1571
     19 N          63.8860   84.5028   13.4838 N.ar    1  UNL1       -0.1513
     20 C          65.0073   92.7644   15.0100 C.3     1  UNL1        0.1063
     21 C          66.3895   93.0530   14.5041 C.3     1  UNL1        0.1483
     22 O          67.5562   93.0144   15.4460 O.3     1  UNL1       -0.3786
     23 H          68.3702   93.2229   14.9613 H       1  UNL1        0.2108
     24 C          68.1034   91.2730   12.8028 C.3     1  UNL1        0.0306
     25 C          67.4620   92.4903   12.2055 C.ar    1  UNL1       -0.0238
     26 C          66.6051   93.3803   13.0561 C.ar    1  UNL1        0.0015
     27 C          65.9638   94.5977   12.4588 C.ar    1  UNL1       -0.0020
     28 C          66.1793   94.9250   11.0110 C.ar    1  UNL1        0.0060
     29 C          67.0362   94.0350   10.1604 C.ar    1  UNL1        0.0748
     30 C          67.6776   92.8177   10.7577 C.ar    1  UNL1        0.0233
     31 C          68.4646   92.1325    9.6801 C.3     1  UNL1        0.2352
     32 O          68.3097   92.9264    8.4169 O.3     1  UNL1       -0.4404
     33 C          67.4269   94.1022    8.7137 C.2     1  UNL1        0.3413
     34 O          67.0083   95.1596    7.7356 O.2     1  UNL1       -0.2449
@<TRIPOS>BOND
     1    24    25    1
     2    25    26   ar
     3    26    21    1
     4    21    22    1
     5    21    20    1
     6    20     1    1
     7     1     2    1
     8     2     3    1
     9     3     4    1
    10     4     5    1
    11     5     6    1
    12     4     7    1
    13     7     8    1
    14     8     9    1
    15     9    12    1
    16    12    13   ar
    17    13    14   ar
    18    14    15   ar
    19    15    16    2
    20    15    17   ar
    21    17    18    1
    22    17    19   ar
    23     9    10   am
    24    10    11    2
    25    26    27   ar
    26    27    28   ar
    27    28    29   ar
    28    29    30   ar
    29    30    31    1
    30    31    32    1
    31    32    33    1
    32    33    34    2
    33    30    25   ar
    34     6     1    1
    35    19    12   ar
    36    33    29    1
    37    10     4    1
    38    22    23    1
@<TRIPOS>MOLECULE
*****
 34 38 0 0 0
SMALL
GASTEIGER

@<TRIPOS>ATOM
      1 N          63.5860   89.3870   13.7552 N.3     1  UNL1       -0.2703
      2 C          63.0293   88.5344   12.6537 C.3     1  UNL1        0.0727
      3 C          63.2113   87.0461   12.6926 C.3     1  UNL1        0.0260
      4 C          63.9499   86.4102   13.8328 C.3     1  UNL1        0.0737
      5 C          64.5066   87.2628   14.9342 C.3     1  UNL1        0.0260
      6 C          64.3247   88.7512   14.8954 C.3     1  UNL1        0.0727
      7 C          64.6619   85.6366   14.9027 C.3     1  UNL1        0.0306
      8 C          64.6039   84.1823   14.5397 C.3     1  UNL1        0.1001
      9 N          63.8560   84.0571   13.2454 N.am    1  UNL1       -0.2425
     10 C          63.4518   85.4340   12.8085 C.2     1  UNL1        0.2296
     11 O          62.6844   85.7750   11.5657 O.2     1  UNL1       -0.2745
     12 C          63.5636   82.7795   12.5161 C.ar    1  UNL1        0.1574
     13 C          63.8384   82.6758   11.0451 C.ar    1  UNL1        0.0414
     14 C          63.5460   81.3980   10.3158 C.ar    1  UNL1        0.0651
     15 C          62.9788   80.2240   11.0574 C.ar    1  UNL1        0.2766
     16 O          62.6864   78.9463   10.3281 O.2     1  UNL1       -0.2655
     17 N          62.7040   80.3277   12.5284 N.ar    1  UNL1       -0.2134
     18 C          62.1368   79.1537   13.2700 C.3     1  UNL1        0.1571
     19 N          62.9964   81.6055   13.2577 N.ar    1  UNL1       -0.1513
     20 C          63.4041   90.8755   13.7164 C.3     1  UNL1        0.1063
     21 C          64.5937   91.7801   13.8443 C.3     1  UNL1        0.1483
     22 O          65.0305   92.2579   15.1974 O.3     1  UNL1       -0.3786
     23 H          65.8085   92.8295   15.1029 H       1  UNL1        0.2108
     24 C          67.5755   91.4695   13.7320 C.3     1  UNL1        0.0306
     25 C          66.8375   92.0516   12.5630 C.ar    1  UNL1       -0.0238
     26 C          65.3467   92.2069   12.6191 C.ar    1  UNL1        0.0015
     27 C          64.6087   92.7890   11.4501 C.ar    1  UNL1       -0.0020
     28 C          65.3615   93.2158   10.2250 C.ar    1  UNL1        0.0060
     29 C          66.8523   93.0605   10.1689 C.ar    1  UNL1        0.0748
     30 C          67.5904   92.4784   11.3378 C.ar    1  UNL1        0.0233
     31 C          69.0504   92.4477   10.9955 C.3     1  UNL1        0.2352
     32 O          69.2149   93.0107    9.6149 O.3     1  UNL1       -0.4404
     33 C          67.8563   93.3895    9.1041 C.2     1  UNL1        0.3413
     34 O          67.5547   93.9915    7.7637 O.2     1  UNL1       -0.2449
@<TRIPOS>BOND
     1    24    25    1
     2    25    26   ar
     3    26    21    1
     4    21    22    1
     5    21    20    1
     6    20     1    1
     7     1     2    1
     8     2     3    1
     9     3     4    1
    10     4     5    1
    11     5     6    1
    12     4     7    1
    13     7     8    1
    14     8     9    1
    15     9    12    1
    16    12    13   ar
    17    13    14   ar
    18    14    15   ar
    19    15    16    2
    20    15    17   ar
    21    17    18    1
    22    17    19   ar
    23     9    10   am
    24    10    11    2
    25    26    27   ar
    26    27    28   ar
    27    28    29   ar
    28    29    30   ar
    29    30    31    1
    30    31    32    1
    31    32    33    1
    32    33    34    2
    33    30    25   ar
    34     6     1    1
    35    19    12   ar
    36    33    29    1
    37    10     4    1
    38    22    23    1
@<TRIPOS>MOLECULE
*****
 34 38 0 0 0
SMALL
GASTEIGER

@<TRIPOS>ATOM
      1 N          63.7176   90.0717   13.1619 N.3     1  UNL1       -0.2703
      2 C          64.0140   88.7824   13.8688 C.3     1  UNL1        0.0727
      3 C          63.6137   87.4772   13.2473 C.3     1  UNL1        0.0260
      4 C          62.9171   87.4614   11.9189 C.3     1  UNL1        0.0737
      5 C          62.6207   88.7508   11.2121 C.3     1  UNL1        0.0260
      6 C          63.0209   90.0560   11.8336 C.3     1  UNL1        0.0727
      7 C          62.2180   87.2891   10.6030 C.3     1  UNL1        0.0306
      8 C          62.0145   85.8205   10.3750 C.3     1  UNL1        0.1001
      9 N          62.5878   85.0852   11.5500 N.am    1  UNL1       -0.2425
     10 C          63.1456   86.0993   12.5042 C.2     1  UNL1        0.2296
     11 O          63.8146   85.8034   13.8137 O.2     1  UNL1       -0.2745
     12 C          62.6010   83.5972   11.7379 C.ar    1  UNL1        0.1574
     13 C          63.2729   82.7192   10.7241 C.ar    1  UNL1        0.0414
     14 C          63.2861   81.2310   10.9120 C.ar    1  UNL1        0.0651
     15 C          62.6274   80.6209   12.1136 C.ar    1  UNL1        0.2766
     16 O          62.6406   79.1327   12.3014 O.2     1  UNL1       -0.2655
     17 N          61.9555   81.4989   13.1274 N.ar    1  UNL1       -0.2134
     18 C          61.2968   80.8887   14.3290 C.3     1  UNL1        0.1571
     19 N          61.9423   82.9870   12.9395 N.ar    1  UNL1       -0.1513
     20 C          64.1178   91.3770   13.7835 C.3     1  UNL1        0.1063
     21 C          65.5124   91.8982   13.6009 C.3     1  UNL1        0.1483
     22 O          66.5113   91.7735   14.7130 O.3     1  UNL1       -0.3786
     23 H          67.3568   92.1574   14.4327 H       1  UNL1        0.2108
     24 C          68.1865   91.2975   12.3807 C.3     1  UNL1        0.0306
     25 C          67.2452   92.2438   11.6962 C.ar    1  UNL1       -0.0238
     26 C          65.9082   92.5442   12.3062 C.ar    1  UNL1        0.0015
     27 C          64.9670   93.4905   11.6217 C.ar    1  UNL1       -0.0020
     28 C          65.3628   94.1364   10.3271 C.ar    1  UNL1        0.0060
     29 C          66.6998   93.8361    9.7170 C.ar    1  UNL1        0.0748
     30 C          67.6410   92.8898   10.4015 C.ar    1  UNL1        0.0233
     31 C          68.8833   92.7872    9.5672 C.3     1  UNL1        0.2352
     32 O          68.7099   93.6700    8.3670 O.3     1  UNL1       -0.4404
     33 C          67.3604   94.3183    8.4596 C.2     1  UNL1        0.3413
     34 O          66.7743   95.2799    7.4687 O.2     1  UNL1       -0.2449
@<TRIPOS>BOND
     1    24    25    1
     2    25    26   ar
     3    26    21    1
     4    21    22    1
     5    21    20    1
     6    20     1    1
     7     1     2    1
     8     2     3    1
     9     3     4    1
    10     4     5    1
    11     5     6    1
    12     4     7    1
    13     7     8    1
    14     8     9    1
    15     9    12    1
    16    12    13   ar
    17    13    14   ar
    18    14    15   ar
    19    15    16    2
    20    15    17   ar
    21    17    18    1
    22    17    19   ar
    23     9    10   am
    24    10    11    2
    25    26    27   ar
    26    27    28   ar
    27    28    29   ar
    28    29    30   ar
    29    30    31    1
    30    31    32    1
    31    32    33    1
    32    33    34    2
    33    30    25   ar
    34     6     1    1
    35    19    12   ar
    36    33    29    1
    37    10     4    1
    38    22    23    1
