@<TRIPOS>MOLECULE
*****
 24 26 0 0 0
SMALL
GASTEIGER

@<TRIPOS>ATOM
      1 N          62.7443   82.9542   15.8522 N.pl3   1  UNL1       -0.3287
      2 C          62.9640   84.4380   15.8511 C.ar    1  UNL1        0.1959
      3 N          62.6201   85.3810   16.9658 N.ar    1  UNL1       -0.2123
      4 C          63.0097   86.7652   16.5388 C.ar    1  UNL1        0.1182
      5 C          62.9076   88.0940   17.2271 C.ar    1  UNL1        0.0239
      6 C          63.3902   89.3352   16.5369 C.ar    1  UNL1        0.0223
      7 C          63.9748   89.2476   15.1583 C.ar    1  UNL1        0.1006
      8 N          64.0769   87.9188   14.4699 N.ar    1  UNL1       -0.2251
      9 C          63.5943   86.6776   15.1602 C.ar    1  UNL1        0.1637
     10 N          63.5661   85.2393   14.7352 N.ar    1  UNL1       -0.2825
     11 H          62.3399   82.5170   16.6362 H       1  UNL1        0.1451
     12 H          63.0045   82.4174   15.0690 H       1  UNL1        0.1451
     13 C          64.0542   84.6975   13.4244 C.3     1  UNL1        0.1438
     14 C          63.0853   84.0789   12.4610 C.3     1  UNL1        0.1562
     15 O          62.6163   82.6695   12.6699 O.3     1  UNL1       -0.3780
     16 H          61.9981   82.4263   11.9631 H       1  UNL1        0.2109
     17 C          62.5852   84.8696   11.2885 C.ar    1  UNL1        0.0176
     18 C          61.6309   86.0068   11.5028 C.ar    1  UNL1       -0.0010
     19 C          61.1308   86.7975   10.3303 C.ar    1  UNL1        0.0007
     20 C          61.5851   86.4510    8.9434 C.ar    1  UNL1        0.0122
     21 C          62.5395   85.3138    8.7290 C.ar    1  UNL1        0.0680
     22 CL         62.9938   84.9672    7.3422 Cl      1  UNL1       -0.0814
     23 C          63.0395   84.5231    9.9015 C.ar    1  UNL1        0.0665
     24 CL         63.9939   83.3859    9.6872 Cl      1  UNL1       -0.0816
@<TRIPOS>BOND
     1     1     2    1
     2     2     3   ar
     3     3     4   ar
     4     4     5   ar
     5     5     6   ar
     6     6     7   ar
     7     7     8   ar
     8     8     9   ar
     9     9    10   ar
    10    10    13    1
    11    13    14    1
    12    14    15    1
    13    14    17    1
    14    17    18   ar
    15    18    19   ar
    16    19    20   ar
    17    20    21   ar
    18    21    22    1
    19    21    23   ar
    20    23    24    1
    21    10     2   ar
    22    23    17   ar
    23     9     4   ar
    24     1    11    1
    25     1    12    1
    26    15    16    1
@<TRIPOS>MOLECULE
*****
 24 26 0 0 0
SMALL
GASTEIGER

@<TRIPOS>ATOM
      1 N          63.1749   85.0259   12.4705 N.pl3   1  UNL1       -0.3287
      2 C          62.4087   85.8469   11.4760 C.ar    1  UNL1        0.1959
      3 N          61.5075   85.3150   10.4013 N.ar    1  UNL1       -0.2123
      4 C          60.9510   86.4832    9.6428 C.ar    1  UNL1        0.1182
      5 C          60.0088   86.5672    8.4786 C.ar    1  UNL1        0.0239
      6 C          59.6239   87.9051    7.9204 C.ar    1  UNL1        0.0223
      7 C          60.1811   89.1591    8.5262 C.ar    1  UNL1        0.1006
      8 N          61.1233   89.0751    9.6904 N.ar    1  UNL1       -0.2251
      9 C          61.5082   87.7372   10.2486 C.ar    1  UNL1        0.1637
     10 N          62.4091   87.3439   11.3816 N.ar    1  UNL1       -0.2825
     11 H          63.1096   84.0438   12.4525 H       1  UNL1        0.1451
     12 H          63.7431   85.4693   13.1412 H       1  UNL1        0.1451
     13 C          63.1758   88.2828   12.2651 C.3     1  UNL1        0.1438
     14 C          62.7506   89.7163   12.3842 C.3     1  UNL1        0.1562
     15 O          61.3219   90.0515   12.6948 O.3     1  UNL1       -0.3780
     16 H          61.2175   91.0150   12.7362 H       1  UNL1        0.2109
     17 C          63.7540   90.8147   12.1926 C.ar    1  UNL1        0.0176
     18 C          63.9290   91.4436   10.8421 C.ar    1  UNL1       -0.0010
     19 C          64.9324   92.5420   10.6505 C.ar    1  UNL1        0.0007
     20 C          65.7609   93.0115   11.8094 C.ar    1  UNL1        0.0122
     21 C          65.5859   92.3826   13.1599 C.ar    1  UNL1        0.0680
     22 CL         66.4143   92.8521   14.3189 Cl      1  UNL1       -0.0814
     23 C          64.5825   91.2842   13.3515 C.ar    1  UNL1        0.0665
     24 CL         64.4076   90.6553   14.7020 Cl      1  UNL1       -0.0816
@<TRIPOS>BOND
     1     1     2    1
     2     2     3   ar
     3     3     4   ar
     4     4     5   ar
     5     5     6   ar
     6     6     7   ar
     7     7     8   ar
     8     8     9   ar
     9     9    10   ar
    10    10    13    1
    11    13    14    1
    12    14    15    1
    13    14    17    1
    14    17    18   ar
    15    18    19   ar
    16    19    20   ar
    17    20    21   ar
    18    21    22    1
    19    21    23   ar
    20    23    24    1
    21    10     2   ar
    22    23    17   ar
    23     9     4   ar
    24     1    11    1
    25     1    12    1
    26    15    16    1
@<TRIPOS>MOLECULE
*****
 24 26 0 0 0
SMALL
GASTEIGER

@<TRIPOS>ATOM
      1 N          62.9586   86.8295   17.6809 N.pl3   1  UNL1       -0.3287
      2 C          63.0136   85.8823   16.5191 C.ar    1  UNL1        0.1959
      3 N          62.3746   84.5267   16.4557 N.ar    1  UNL1       -0.2123
      4 C          62.6833   83.9310   15.1141 C.ar    1  UNL1        0.1182
      5 C          62.3160   82.6170   14.4908 C.ar    1  UNL1        0.0239
      6 C          62.7785   82.2905   13.1018 C.ar    1  UNL1        0.0223
      7 C          63.6083   83.2779   12.3361 C.ar    1  UNL1        0.1006
      8 N          63.9757   84.5919   12.9593 N.ar    1  UNL1       -0.2251
      9 C          63.5131   84.9184   14.3483 C.ar    1  UNL1        0.1637
     10 N          63.7173   86.1244   15.2167 N.ar    1  UNL1       -0.2825
     11 H          62.4689   86.5791   18.4974 H       1  UNL1        0.1451
     12 H          63.4123   87.7016   17.6269 H       1  UNL1        0.1451
     13 C          64.4895   87.3562   14.8474 C.3     1  UNL1        0.1438
     14 C          63.8146   88.6956   14.8573 C.3     1  UNL1        0.1562
     15 O          63.1140   89.1734   16.0946 O.3     1  UNL1       -0.3780
     16 H          62.7344   90.0512   15.9327 H       1  UNL1        0.2109
     17 C          63.8401   89.5575   13.6298 C.ar    1  UNL1        0.0176
     18 C          63.0534   89.1583   12.4166 C.ar    1  UNL1       -0.0010
     19 C          63.0790   90.0202   11.1892 C.ar    1  UNL1        0.0007
     20 C          63.8911   91.2811   11.1750 C.ar    1  UNL1        0.0122
     21 C          64.6778   91.6803   12.3881 C.ar    1  UNL1        0.0680
     22 CL         65.4900   92.9412   12.3740 Cl      1  UNL1       -0.0814
     23 C          64.6523   90.8184   13.6156 C.ar    1  UNL1        0.0665
     24 CL         65.4390   91.2176   14.8287 Cl      1  UNL1       -0.0816
@<TRIPOS>BOND
     1     1     2    1
     2     2     3   ar
     3     3     4   ar
     4     4     5   ar
     5     5     6   ar
     6     6     7   ar
     7     7     8   ar
     8     8     9   ar
     9     9    10   ar
    10    10    13    1
    11    13    14    1
    12    14    15    1
    13    14    17    1
    14    17    18   ar
    15    18    19   ar
    16    19    20   ar
    17    20    21   ar
    18    21    22    1
    19    21    23   ar
    20    23    24    1
    21    10     2   ar
    22    23    17   ar
    23     9     4   ar
    24     1    11    1
    25     1    12    1
    26    15    16    1
@<TRIPOS>MOLECULE
*****
 24 26 0 0 0
SMALL
GASTEIGER

@<TRIPOS>ATOM
      1 N          60.3580   86.5764    8.7988 N.pl3   1  UNL1       -0.3287
      2 C          61.1486   87.5541    9.6168 C.ar    1  UNL1        0.1959
      3 N          61.5525   88.9350    9.1927 N.ar    1  UNL1       -0.2123
      4 C          62.3277   89.5569   10.3162 C.ar    1  UNL1        0.1182
      5 C          62.9748   90.9019   10.4653 C.ar    1  UNL1        0.0239
      6 C          63.6971   91.2503   11.7329 C.ar    1  UNL1        0.0223
      7 C          63.7722   90.2537   12.8515 C.ar    1  UNL1        0.1006
      8 N          63.1251   88.9087   12.7024 N.ar    1  UNL1       -0.2251
      9 C          62.4028   88.5603   11.4348 C.ar    1  UNL1        0.1637
     10 N          61.6741   87.3226   11.0025 N.ar    1  UNL1       -0.2825
     11 H          60.0558   86.8221    7.8946 H       1  UNL1        0.1451
     12 H          60.1412   85.6891    9.1662 H       1  UNL1        0.1451
     13 C          61.5013   86.0726   11.8136 C.3     1  UNL1        0.1438
     14 C          62.7030   85.3629   12.3630 C.3     1  UNL1        0.1562
     15 O          63.6310   86.0756   13.3016 O.3     1  UNL1       -0.3780
     16 H          64.3504   85.4786   13.5603 H       1  UNL1        0.2109
     17 C          62.9769   83.9403   11.9738 C.ar    1  UNL1        0.0176
     18 C          63.5674   83.6307   10.6302 C.ar    1  UNL1       -0.0010
     19 C          63.8413   82.2082   10.2410 C.ar    1  UNL1        0.0007
     20 C          63.5247   81.0953   11.1956 C.ar    1  UNL1        0.0122
     21 C          62.9342   81.4049   12.5393 C.ar    1  UNL1        0.0680
     22 CL         62.6177   80.2921   13.4939 Cl      1  UNL1       -0.0814
     23 C          62.6603   82.8274   12.9284 C.ar    1  UNL1        0.0665
     24 CL         62.0699   83.1370   14.2721 Cl      1  UNL1       -0.0816
@<TRIPOS>BOND
     1     1     2    1
     2     2     3   ar
     3     3     4   ar
     4     4     5   ar
     5     5     6   ar
     6     6     7   ar
     7     7     8   ar
     8     8     9   ar
     9     9    10   ar
    10    10    13    1
    11    13    14    1
    12    14    15    1
    13    14    17    1
    14    17    18   ar
    15    18    19   ar
    16    19    20   ar
    17    20    21   ar
    18    21    22    1
    19    21    23   ar
    20    23    24    1
    21    10     2   ar
    22    23    17   ar
    23     9     4   ar
    24     1    11    1
    25     1    12    1
    26    15    16    1
@<TRIPOS>MOLECULE
*****
 24 26 0 0 0
SMALL
GASTEIGER

@<TRIPOS>ATOM
      1 N          62.6395   89.6591   15.3450 N.pl3   1  UNL1       -0.3287
      2 C          63.5304   90.3890   14.3839 C.ar    1  UNL1        0.1959
      3 N          64.8969   90.9293   14.6848 N.ar    1  UNL1       -0.2123
      4 C          65.4222   91.5810   13.4400 C.ar    1  UNL1        0.1182
      5 C          66.7147   92.2818   13.1429 C.ar    1  UNL1        0.0239
      6 C          66.9652   92.8451   11.7755 C.ar    1  UNL1        0.0223
      7 C          65.9232   92.7076   10.7052 C.ar    1  UNL1        0.1006
      8 N          64.6308   92.0068   11.0024 N.ar    1  UNL1       -0.2251
      9 C          64.3803   91.4434   12.3698 C.ar    1  UNL1        0.1637
     10 N          63.2111   90.7068   12.9531 N.ar    1  UNL1       -0.2825
     11 H          62.9394   89.4978   16.2687 H       1  UNL1        0.1451
     12 H          61.7549   89.3414   15.0520 H       1  UNL1        0.1451
     13 C          61.9448   90.3505   12.2322 C.3     1  UNL1        0.1438
     14 C          61.9970   89.9012   10.8021 C.3     1  UNL1        0.1562
     15 O          62.2564   90.8982    9.7117 O.3     1  UNL1       -0.3780
     16 H          62.2577   90.4458    8.8536 H       1  UNL1        0.2109
     17 C          61.7897   88.4550   10.4622 C.ar    1  UNL1        0.0176
     18 C          62.4823   87.3903   11.2601 C.ar    1  UNL1       -0.0010
     19 C          62.2750   85.9441   10.9202 C.ar    1  UNL1        0.0007
     20 C          61.3752   85.5626    9.7823 C.ar    1  UNL1        0.0122
     21 C          60.6827   86.6273    8.9844 C.ar    1  UNL1        0.0680
     22 CL         59.7829   86.2459    7.8465 Cl      1  UNL1       -0.0814
     23 C          60.8899   88.0735    9.3243 C.ar    1  UNL1        0.0665
     24 CL         60.1974   89.1382    8.5263 Cl      1  UNL1       -0.0816
@<TRIPOS>BOND
     1     1     2    1
     2     2     3   ar
     3     3     4   ar
     4     4     5   ar
     5     5     6   ar
     6     6     7   ar
     7     7     8   ar
     8     8     9   ar
     9     9    10   ar
    10    10    13    1
    11    13    14    1
    12    14    15    1
    13    14    17    1
    14    17    18   ar
    15    18    19   ar
    16    19    20   ar
    17    20    21   ar
    18    21    22    1
    19    21    23   ar
    20    23    24    1
    21    10     2   ar
    22    23    17   ar
    23     9     4   ar
    24     1    11    1
    25     1    12    1
    26    15    16    1
@<TRIPOS>MOLECULE
*****
 24 26 0 0 0
SMALL
GASTEIGER

@<TRIPOS>ATOM
      1 N          60.0376   87.2203    8.4660 N.pl3   1  UNL1       -0.3287
      2 C          60.9107   87.9756    9.4238 C.ar    1  UNL1        0.1959
      3 N          61.3118   89.4159    9.3032 N.ar    1  UNL1       -0.2123
      4 C          62.1849   89.7537   10.4752 C.ar    1  UNL1        0.1182
      5 C          62.8717   91.0236   10.8821 C.ar    1  UNL1        0.0239
      6 C          63.6971   91.0618   12.1340 C.ar    1  UNL1        0.0223
      7 C          63.8356   89.8302   12.9789 C.ar    1  UNL1        0.1006
      8 N          63.1489   88.5603   12.5720 N.ar    1  UNL1       -0.2251
      9 C          62.3235   88.5221   11.3201 C.ar    1  UNL1        0.1637
     10 N          61.5360   87.4232   10.6703 N.ar    1  UNL1       -0.2825
     11 H          59.6724   87.6725    7.6714 H       1  UNL1        0.1451
     12 H          59.8299   86.2724    8.6320 H       1  UNL1        0.1451
     13 C          61.3980   86.0184   11.1779 C.3     1  UNL1        0.1438
     14 C          62.5661   85.0797   11.1141 C.3     1  UNL1        0.1562
     15 O          63.1949   84.7536    9.7919 O.3     1  UNL1       -0.3780
     16 H          63.9315   84.1372    9.9274 H       1  UNL1        0.2109
     17 C          63.1056   84.4670   12.3725 C.ar    1  UNL1        0.0176
     18 C          63.6398   85.3451   13.4651 C.ar    1  UNL1       -0.0010
     19 C          64.1793   84.7324   14.7235 C.ar    1  UNL1        0.0007
     20 C          64.1846   83.2416   14.8893 C.ar    1  UNL1        0.0122
     21 C          63.6504   82.3635   13.7968 C.ar    1  UNL1        0.0680
     22 CL         63.6557   80.8728   13.9626 Cl      1  UNL1       -0.0814
     23 C          63.1109   82.9762   12.5384 C.ar    1  UNL1        0.0665
     24 CL         62.5768   82.0982   11.4459 Cl      1  UNL1       -0.0816
@<TRIPOS>BOND
     1     1     2    1
     2     2     3   ar
     3     3     4   ar
     4     4     5   ar
     5     5     6   ar
     6     6     7   ar
     7     7     8   ar
     8     8     9   ar
     9     9    10   ar
    10    10    13    1
    11    13    14    1
    12    14    15    1
    13    14    17    1
    14    17    18   ar
    15    18    19   ar
    16    19    20   ar
    17    20    21   ar
    18    21    22    1
    19    21    23   ar
    20    23    24    1
    21    10     2   ar
    22    23    17   ar
    23     9     4   ar
    24     1    11    1
    25     1    12    1
    26    15    16    1
@<TRIPOS>MOLECULE
*****
 24 26 0 0 0
SMALL
GASTEIGER

@<TRIPOS>ATOM
      1 N          65.3818   92.9854   10.0637 N.pl3   1  UNL1       -0.3287
      2 C          64.9642   92.3177   11.3404 C.ar    1  UNL1        0.1959
      3 N          65.6045   92.5053   12.6838 N.ar    1  UNL1       -0.2123
      4 C          64.8692   91.6487   13.6715 C.ar    1  UNL1        0.1182
      5 C          65.0550   91.4290   15.1436 C.ar    1  UNL1        0.0239
      6 C          64.1460   90.4923   15.8827 C.ar    1  UNL1        0.0223
      7 C          63.0512   89.7753   15.1497 C.ar    1  UNL1        0.1006
      8 N          62.8654   89.9950   13.6776 N.ar    1  UNL1       -0.2251
      9 C          63.7744   90.9317   12.9385 C.ar    1  UNL1        0.1637
     10 N          63.8331   91.3452   11.4978 N.ar    1  UNL1       -0.2825
     11 H          66.1411   93.6121   10.0614 H       1  UNL1        0.1451
     12 H          64.8965   92.7970    9.2281 H       1  UNL1        0.1451
     13 C          62.9209   90.8696   10.4061 C.3     1  UNL1        0.1438
     14 C          61.6878   90.0867   10.7471 C.3     1  UNL1        0.1562
     15 O          60.5458   90.7558   11.4531 O.3     1  UNL1       -0.3780
     16 H          59.8335   90.1132   11.5968 H       1  UNL1        0.2109
     17 C          61.5964   88.6346   10.3821 C.ar    1  UNL1        0.0176
     18 C          62.3530   87.6123   11.1774 C.ar    1  UNL1       -0.0010
     19 C          62.2616   86.1603   10.8124 C.ar    1  UNL1        0.0007
     20 C          61.4137   85.7305    9.6521 C.ar    1  UNL1        0.0122
     21 C          60.6572   86.7528    8.8567 C.ar    1  UNL1        0.0680
     22 CL         59.8093   86.3232    7.6964 Cl      1  UNL1       -0.0814
     23 C          60.7485   88.2049    9.2218 C.ar    1  UNL1        0.0665
     24 CL         59.9920   89.2272    8.4264 Cl      1  UNL1       -0.0816
@<TRIPOS>BOND
     1     1     2    1
     2     2     3   ar
     3     3     4   ar
     4     4     5   ar
     5     5     6   ar
     6     6     7   ar
     7     7     8   ar
     8     8     9   ar
     9     9    10   ar
    10    10    13    1
    11    13    14    1
    12    14    15    1
    13    14    17    1
    14    17    18   ar
    15    18    19   ar
    16    19    20   ar
    17    20    21   ar
    18    21    22    1
    19    21    23   ar
    20    23    24    1
    21    10     2   ar
    22    23    17   ar
    23     9     4   ar
    24     1    11    1
    25     1    12    1
    26    15    16    1
@<TRIPOS>MOLECULE
*****
 24 26 0 0 0
SMALL
GASTEIGER

@<TRIPOS>ATOM
      1 N          63.1059   91.4864    9.5916 N.pl3   1  UNL1       -0.3287
      2 C          63.8844   91.7969   10.8356 C.ar    1  UNL1        0.1959
      3 N          64.9860   92.8077   10.9570 N.ar    1  UNL1       -0.2123
      4 C          65.4805   92.7866   12.3730 C.ar    1  UNL1        0.1182
      5 C          66.5527   93.5674   13.0735 C.ar    1  UNL1        0.0239
      6 C          66.8289   93.3244   14.5276 C.ar    1  UNL1        0.0223
      7 C          66.0329   92.3005   15.2813 C.ar    1  UNL1        0.1006
      8 N          64.9607   91.5197   14.5809 N.ar    1  UNL1       -0.2251
      9 C          64.6845   91.7628   13.1268 C.ar    1  UNL1        0.1637
     10 N          63.6981   91.1511   12.1765 N.ar    1  UNL1       -0.2825
     11 H          63.3028   91.9665    8.7550 H       1  UNL1        0.1451
     12 H          62.3979   90.8026    9.6118 H       1  UNL1        0.1451
     13 C          62.7004   90.0814   12.5090 C.3     1  UNL1        0.1438
     14 C          62.8021   88.7331   11.8598 C.3     1  UNL1        0.1562
     15 O          62.4622   88.5722   10.4077 O.3     1  UNL1       -0.3780
     16 H          62.5802   87.6449   10.1488 H       1  UNL1        0.2109
     17 C          63.2437   87.5454   12.6626 C.ar    1  UNL1        0.0176
     18 C          64.0676   87.7414   13.9007 C.ar    1  UNL1       -0.0010
     19 C          64.5092   86.5538   14.7035 C.ar    1  UNL1        0.0007
     20 C          64.1270   85.1702   14.2683 C.ar    1  UNL1        0.0122
     21 C          63.3032   84.9742   13.0302 C.ar    1  UNL1        0.0680
     22 CL         62.9209   83.5906   12.5949 Cl      1  UNL1       -0.0814
     23 C          62.8615   86.1618   12.2274 C.ar    1  UNL1        0.0665
     24 CL         62.0377   85.9658   10.9893 Cl      1  UNL1       -0.0816
@<TRIPOS>BOND
     1     1     2    1
     2     2     3   ar
     3     3     4   ar
     4     4     5   ar
     5     5     6   ar
     6     6     7   ar
     7     7     8   ar
     8     8     9   ar
     9     9    10   ar
    10    10    13    1
    11    13    14    1
    12    14    15    1
    13    14    17    1
    14    17    18   ar
    15    18    19   ar
    16    19    20   ar
    17    20    21   ar
    18    21    22    1
    19    21    23   ar
    20    23    24    1
    21    10     2   ar
    22    23    17   ar
    23     9     4   ar
    24     1    11    1
    25     1    12    1
    26    15    16    1
@<TRIPOS>MOLECULE
*****
 24 26 0 0 0
SMALL
GASTEIGER

@<TRIPOS>ATOM
      1 N          60.7922   89.7964    9.0446 N.pl3   1  UNL1       -0.3287
      2 C          61.7252   89.9386   10.2105 C.ar    1  UNL1        0.1959
      3 N          62.6591   91.0860   10.4576 N.ar    1  UNL1       -0.2123
      4 C          63.3992   90.8149   11.7339 C.ar    1  UNL1        0.1182
      5 C          64.4454   91.5955   12.4727 C.ar    1  UNL1        0.0239
      6 C          65.0151   91.0610   13.7532 C.ar    1  UNL1        0.0223
      7 C          64.5385   89.7460   14.2949 C.ar    1  UNL1        0.1006
      8 N          63.4923   88.9653   13.5561 N.ar    1  UNL1       -0.2251
      9 C          62.9226   89.4998   12.2755 C.ar    1  UNL1        0.1637
     10 N          61.8880   88.9582   11.3340 N.ar    1  UNL1       -0.2825
     11 H          60.7569   90.4973    8.3541 H       1  UNL1        0.1451
     12 H          60.2152   89.0023    8.9698 H       1  UNL1        0.1451
     13 C          61.1465   87.6636   11.4889 C.3     1  UNL1        0.1438
     14 C          61.4942   86.4914   10.6200 C.3     1  UNL1        0.1562
     15 O          61.0517   86.4627    9.1870 O.3     1  UNL1       -0.3780
     16 H          61.3569   85.6414    8.7708 H       1  UNL1        0.2109
     17 C          62.2844   85.3479   11.1840 C.ar    1  UNL1        0.0176
     18 C          62.2495   85.0663   12.6569 C.ar    1  UNL1       -0.0010
     19 C          63.0397   83.9229   13.2208 C.ar    1  UNL1        0.0007
     20 C          63.8649   83.0610   12.3118 C.ar    1  UNL1        0.0122
     21 C          63.8998   83.3426   10.8389 C.ar    1  UNL1        0.0680
     22 CL         64.7249   82.4808    9.9298 Cl      1  UNL1       -0.0814
     23 C          63.1096   84.4861   10.2750 C.ar    1  UNL1        0.0665
     24 CL         63.1445   84.7677    8.8021 Cl      1  UNL1       -0.0816
@<TRIPOS>BOND
     1     1     2    1
     2     2     3   ar
     3     3     4   ar
     4     4     5   ar
     5     5     6   ar
     6     6     7   ar
     7     7     8   ar
     8     8     9   ar
     9     9    10   ar
    10    10    13    1
    11    13    14    1
    12    14    15    1
    13    14    17    1
    14    17    18   ar
    15    18    19   ar
    16    19    20   ar
    17    20    21   ar
    18    21    22    1
    19    21    23   ar
    20    23    24    1
    21    10     2   ar
    22    23    17   ar
    23     9     4   ar
    24     1    11    1
    25     1    12    1
    26    15    16    1
