@<TRIPOS>MOLECULE
*****
 41 45 0 0 0
SMALL
GASTEIGER

@<TRIPOS>ATOM
      1 C          61.3917   87.4446   10.2910 C.ar    1  UNL1        0.0719
      2 C          62.0488   86.2027   10.8162 C.ar    1  UNL1        0.1049
      3 N          62.7751   86.5610   12.0788 N.ar    1  UNL1       -0.2242
      4 N          63.5992   85.7438   13.0291 N.ar    1  UNL1       -0.1422
      5 C          64.2150   86.3900   14.2345 C.ar    1  UNL1        0.2211
      6 N          64.0067   87.8534   14.4897 N.ar    1  UNL1       -0.2060
      7 C          63.1826   88.6706   13.5394 C.ar    1  UNL1        0.1515
      8 C          62.5668   88.0244   12.3340 C.ar    1  UNL1        0.1107
      9 C          61.7118   88.5704   11.2290 C.ar    1  UNL1        0.0040
     10 C          59.3116   88.4435    7.1700 C.ar    1  UNL1        0.4173
     11 N          59.2506   86.9468    7.0920 N.ar    1  UNL1       -0.0714
     12 N          60.0224   86.3904    8.2517 N.ar    1  UNL1       -0.1042
     13 C          60.5604   87.5433    9.0464 C.ar    1  UNL1        0.2543
     14 O          60.1211   88.8121    8.3778 O.2     1  UNL1       -0.3888
     15 O          58.6749   89.4031    6.2089 O.3     1  UNL1       -0.4311
     16 C          59.4775   90.5326    5.6343 C.3     1  UNL1        0.2256
     17 C          59.5607   92.4730    3.9087 C.3     1  UNL1        0.0208
     18 C          58.7903   91.6369    4.8873 C.3     1  UNL1        0.0953
     19 N          57.3328   91.9052    5.1188 N.3     1  UNL1       -0.3192
     20 H          57.0332   92.6843    4.5326 H       1  UNL1        0.1189
     21 H          57.1820   92.1403    6.0999 H       1  UNL1        0.1189
     22 C          61.2569   89.9927   11.0871 C.3     1  UNL1        0.0241
     23 C          59.8897   90.3933   11.5569 C.3     1  UNL1        0.0047
     24 C          62.1688   91.0144   10.4755 C.3     1  UNL1        0.0047
     25 N          62.9743   90.1340   13.7946 N.pl3   1  UNL1       -0.2949
     26 H          62.0622   90.5028   13.8283 H       1  UNL1        0.1537
     27 C          64.1558   91.0354   13.9984 C.ar    1  UNL1        0.0775
     28 C          64.8494   91.6420   12.8148 C.ar    1  UNL1        0.0237
     29 C          66.0309   92.5434   13.0186 C.ar    1  UNL1        0.0821
     30 C          66.5188   92.8382   14.4061 C.ar    1  UNL1        0.1468
     31 F          67.7003   93.7396   14.6099 F       1  UNL1       -0.2039
     32 C          65.8253   92.2316   15.5897 C.ar    1  UNL1        0.0607
     33 C          64.6437   91.3301   15.3859 C.ar    1  UNL1        0.1557
     34 F          63.9502   90.7235   16.5695 F       1  UNL1       -0.2028
     35 C          66.7245   93.1501   11.8349 C.2     1  UNL1        0.2480
     36 O          67.9169   92.4674   11.2333 O.2     1  UNL1       -0.2701
     37 N          66.2256   94.4394   11.2530 N.am    1  UNL1       -0.3024
     38 H          65.4430   94.8875   11.6479 H       1  UNL1        0.1497
     39 C          66.9191   95.0461   10.0694 C.3     1  UNL1        0.0720
     40 C          67.3669   96.2574    9.3064 C.3     1  UNL1        0.0213
     41 C          67.6726   94.8856    8.7824 C.3     1  UNL1        0.0213
@<TRIPOS>BOND
     1    17    18    1
     2    18    19    1
     3    18    16    1
     4    16    15    1
     5    15    10    1
     6    10    11   ar
     7    11    12   ar
     8    12    13   ar
     9    13     1    1
    10     1     2   ar
    11     2     3   ar
    12     3     4   ar
    13     4     5   ar
    14     5     6   ar
    15     6     7   ar
    16     7    25    1
    17    25    27    1
    18    27    28   ar
    19    28    29   ar
    20    29    35    1
    21    35    36    2
    22    35    37   am
    23    37    39    1
    24    39    40    1
    25    40    41    1
    26    29    30   ar
    27    30    31    1
    28    30    32   ar
    29    32    33   ar
    30    33    34    1
    31     7     8   ar
    32     8     9   ar
    33     9    22    1
    34    22    23    1
    35    22    24    1
    36    13    14   ar
    37    14    10   ar
    38     9     1   ar
    39     8     3   ar
    40    33    27   ar
    41    41    39    1
    42    19    20    1
    43    19    21    1
    44    25    26    1
    45    37    38    1
@<TRIPOS>MOLECULE
*****
 41 45 0 0 0
SMALL
GASTEIGER

@<TRIPOS>ATOM
      1 C          62.8639   85.5269   11.0979 C.ar    1  UNL1        0.0719
      2 C          62.2609   86.2317    9.9191 C.ar    1  UNL1        0.1049
      3 N          62.0323   87.6638   10.3024 N.ar    1  UNL1       -0.2242
      4 N          61.4634   88.8269    9.5452 N.ar    1  UNL1       -0.1422
      5 C          61.3562   90.1703   10.2037 C.ar    1  UNL1        0.2211
      6 N          61.8180   90.3506   11.6194 N.ar    1  UNL1       -0.2060
      7 C          62.3869   89.1875   12.3766 C.ar    1  UNL1        0.1515
      8 C          62.4941   87.8441   11.7181 C.ar    1  UNL1        0.1107
      9 C          63.0080   86.5234   12.2097 C.ar    1  UNL1        0.0040
     10 C          63.1761   81.6801   11.5108 C.ar    1  UNL1        0.4173
     11 N          64.5337   82.0252   10.9743 N.ar    1  UNL1       -0.0714
     12 N          64.5820   83.5082   10.7544 N.ar    1  UNL1       -0.1042
     13 C          63.2542   84.0797   11.1549 C.ar    1  UNL1        0.2543
     14 O          62.3854   82.9499   11.6223 O.2     1  UNL1       -0.3888
     15 O          62.6939   80.3065   11.8722 O.3     1  UNL1       -0.4311
     16 C          62.4087   79.9644   13.3045 C.3     1  UNL1        0.2256
     17 C          60.0211   80.5059   14.1737 C.3     1  UNL1        0.0208
     18 C          61.4850   80.8272   14.1120 C.3     1  UNL1        0.0953
     19 N          62.0250   82.0113   14.8578 N.3     1  UNL1       -0.3192
     20 H          61.2636   82.4801   15.3486 H       1  UNL1        0.1189
     21 H          62.4557   82.6604   14.1993 H       1  UNL1        0.1189
     22 C          63.5678   86.2477   13.5738 C.3     1  UNL1        0.0241
     23 C          64.5965   87.1672   14.1623 C.3     1  UNL1        0.0047
     24 C          63.0989   85.0525   14.3494 C.3     1  UNL1        0.0047
     25 N          62.8486   89.3678   13.7924 N.pl3   1  UNL1       -0.2949
     26 H          62.4740   88.8047   14.5078 H       1  UNL1        0.1537
     27 C          63.8812   90.4058   14.1181 C.ar    1  UNL1        0.0775
     28 C          64.7281   90.9897   13.0263 C.ar    1  UNL1        0.0237
     29 C          65.7607   92.0278   13.3519 C.ar    1  UNL1        0.0821
     30 C          65.9464   92.4821   14.7694 C.ar    1  UNL1        0.1468
     31 F          66.9791   93.5202   15.0950 F       1  UNL1       -0.2039
     32 C          65.0996   91.8983   15.8611 C.ar    1  UNL1        0.0607
     33 C          64.0669   90.8601   15.5355 C.ar    1  UNL1        0.1557
     34 F          63.2201   90.2764   16.6272 F       1  UNL1       -0.2028
     35 C          66.6076   92.6116   12.2602 C.2     1  UNL1        0.2480
     36 O          68.0629   92.2595   12.1703 O.2     1  UNL1       -0.2701
     37 N          65.9992   93.5476   11.2583 N.am    1  UNL1       -0.3024
     38 H          65.0441   93.7788   11.3173 H       1  UNL1        0.1497
     39 C          66.8461   94.1315   10.1666 C.3     1  UNL1        0.0720
     40 C          67.2869   95.3143    9.3563 C.3     1  UNL1        0.0213
     41 C          67.8720   93.9599    9.0859 C.3     1  UNL1        0.0213
@<TRIPOS>BOND
     1    17    18    1
     2    18    19    1
     3    18    16    1
     4    16    15    1
     5    15    10    1
     6    10    11   ar
     7    11    12   ar
     8    12    13   ar
     9    13     1    1
    10     1     2   ar
    11     2     3   ar
    12     3     4   ar
    13     4     5   ar
    14     5     6   ar
    15     6     7   ar
    16     7    25    1
    17    25    27    1
    18    27    28   ar
    19    28    29   ar
    20    29    35    1
    21    35    36    2
    22    35    37   am
    23    37    39    1
    24    39    40    1
    25    40    41    1
    26    29    30   ar
    27    30    31    1
    28    30    32   ar
    29    32    33   ar
    30    33    34    1
    31     7     8   ar
    32     8     9   ar
    33     9    22    1
    34    22    23    1
    35    22    24    1
    36    13    14   ar
    37    14    10   ar
    38     9     1   ar
    39     8     3   ar
    40    33    27   ar
    41    41    39    1
    42    19    20    1
    43    19    21    1
    44    25    26    1
    45    37    38    1
@<TRIPOS>MOLECULE
*****
 41 45 0 0 0
SMALL
GASTEIGER

@<TRIPOS>ATOM
      1 C          62.4747   86.3529   11.0630 C.ar    1  UNL1        0.0719
      2 C          63.1058   85.2781   11.8975 C.ar    1  UNL1        0.1049
      3 N          63.5601   85.8981   13.1856 N.ar    1  UNL1       -0.2242
      4 N          64.2476   85.3234   14.3885 N.ar    1  UNL1       -0.1422
      5 C          64.5847   86.2067   15.5530 C.ar    1  UNL1        0.2211
      6 N          64.2344   87.6647   15.5146 N.ar    1  UNL1       -0.2060
      7 C          63.5469   88.2394   14.3116 C.ar    1  UNL1        0.1515
      8 C          63.2098   87.3561   13.1472 C.ar    1  UNL1        0.1107
      9 C          62.5390   87.6372   11.8353 C.ar    1  UNL1        0.0040
     10 C          60.3696   86.2938    7.8025 C.ar    1  UNL1        0.4173
     11 N          61.5760   85.5074    7.3829 N.ar    1  UNL1       -0.0714
     12 N          62.5114   85.4338    8.5532 N.ar    1  UNL1       -0.1042
     13 C          61.8831   86.1748    9.6961 C.ar    1  UNL1        0.2543
     14 O          60.5594   86.7063    9.2321 O.2     1  UNL1       -0.3888
     15 O          59.1819   86.6119    6.9433 O.3     1  UNL1       -0.4311
     16 C          58.5129   87.9499    7.0541 C.3     1  UNL1        0.2256
     17 C          59.3726   90.0692    5.8216 C.3     1  UNL1        0.0208
     18 C          59.3368   89.2033    7.0459 C.3     1  UNL1        0.0953
     19 N          60.1248   89.5907    8.2620 N.3     1  UNL1       -0.3192
     20 H          60.6217   90.4631    8.0814 H       1  UNL1        0.1189
     21 H          60.7972   88.8553    8.4799 H       1  UNL1        0.1189
     22 C          62.0230   88.9688   11.3764 C.3     1  UNL1        0.0241
     23 C          62.8729   89.8412   10.5006 C.3     1  UNL1        0.0047
     24 C          60.6573   89.4282   11.7931 C.3     1  UNL1        0.0047
     25 N          63.1966   89.6975   14.2732 N.pl3   1  UNL1       -0.2949
     26 H          62.2603   89.9757   14.1502 H       1  UNL1        0.1537
     27 C          64.2729   90.7316   14.4222 C.ar    1  UNL1        0.0775
     28 C          65.0822   91.1490   13.2301 C.ar    1  UNL1        0.0237
     29 C          66.1584   92.1831   13.3791 C.ar    1  UNL1        0.0821
     30 C          66.4255   92.7998   14.7201 C.ar    1  UNL1        0.1468
     31 F          67.5018   93.8340   14.8690 F       1  UNL1       -0.2039
     32 C          65.6163   92.3825   15.9121 C.ar    1  UNL1        0.0607
     33 C          64.5399   91.3483   15.7632 C.ar    1  UNL1        0.1557
     34 F          63.7307   90.9310   16.9552 F       1  UNL1       -0.2028
     35 C          66.9677   92.6004   12.1870 C.2     1  UNL1        0.2480
     36 O          68.3596   92.0725   12.0034 O.2     1  UNL1       -0.2701
     37 N          66.3850   93.5458   11.1786 N.am    1  UNL1       -0.3024
     38 H          65.4714   93.8923   11.2992 H       1  UNL1        0.1497
     39 C          67.1942   93.9632    9.9866 C.3     1  UNL1        0.0720
     40 C          68.1378   93.6198    8.8724 C.3     1  UNL1        0.0213
     41 C          67.6521   95.0294    9.0362 C.3     1  UNL1        0.0213
@<TRIPOS>BOND
     1    17    18    1
     2    18    19    1
     3    18    16    1
     4    16    15    1
     5    15    10    1
     6    10    11   ar
     7    11    12   ar
     8    12    13   ar
     9    13     1    1
    10     1     2   ar
    11     2     3   ar
    12     3     4   ar
    13     4     5   ar
    14     5     6   ar
    15     6     7   ar
    16     7    25    1
    17    25    27    1
    18    27    28   ar
    19    28    29   ar
    20    29    35    1
    21    35    36    2
    22    35    37   am
    23    37    39    1
    24    39    40    1
    25    40    41    1
    26    29    30   ar
    27    30    31    1
    28    30    32   ar
    29    32    33   ar
    30    33    34    1
    31     7     8   ar
    32     8     9   ar
    33     9    22    1
    34    22    23    1
    35    22    24    1
    36    13    14   ar
    37    14    10   ar
    38     9     1   ar
    39     8     3   ar
    40    33    27   ar
    41    41    39    1
    42    19    20    1
    43    19    21    1
    44    25    26    1
    45    37    38    1
