@<TRIPOS>MOLECULE
*****
 29 33 0 0 0
SMALL
GASTEIGER

@<TRIPOS>ATOM
      1 O          60.7679   89.5298   10.1095 O.2     1  UNL1       -0.2638
      2 C          61.6142   88.6679   10.9990 C.2     1  UNL1        0.3160
      3 N          61.3501   87.1940   11.0868 N.am    1  UNL1       -0.1720
      4 C          62.1964   86.3321   11.9762 C.ar    1  UNL1        0.0775
      5 C          61.9324   84.8582   12.0641 C.ar    1  UNL1        0.0168
      6 C          62.7786   83.9963   12.9535 C.ar    1  UNL1        0.0021
      7 C          63.8890   84.6085   13.7550 C.ar    1  UNL1        0.0002
      8 C          64.1530   86.0824   13.6672 C.ar    1  UNL1        0.0051
      9 C          63.3068   86.9442   12.7778 C.ar    1  UNL1        0.0623
     10 C          63.5708   88.4182   12.6899 C.2     1  UNL1        0.2419
     11 N          64.5870   89.2973   13.3566 N.2     1  UNL1       -0.0302
     12 C          64.3687   90.7025   12.8793 C.2     1  UNL1        0.3787
     13 N          63.2177   90.6918   11.9176 N.2     1  UNL1       -0.0255
     14 C          62.7245   89.2800   11.8005 C.2     1  UNL1        0.2907
     15 C          65.1623   91.9069   13.2914 C.ar    1  UNL1        0.1263
     16 C          65.5478   92.0952   14.7287 C.ar    1  UNL1        0.1484
     17 F          65.1399   91.0791   15.7539 F       1  UNL1       -0.2039
     18 C          66.3413   93.2995   15.1407 C.ar    1  UNL1        0.0300
     19 C          66.7493   94.3156   14.1154 C.ar    1  UNL1        0.0032
     20 C          66.3638   94.1273   12.6781 C.ar    1  UNL1        0.0118
     21 C          65.5703   92.9229   12.2661 C.ar    1  UNL1        0.0673
     22 CL         65.1847   92.7346   10.8287 Cl      1  UNL1       -0.0819
     23 C          62.5146   82.5223   13.0414 C.ar    1  UNL1        0.0106
     24 C          61.7230   81.9693   14.1892 C.ar    1  UNL1        0.0008
     25 C          61.4590   80.4954   14.2772 C.ar    1  UNL1        0.0001
     26 C          61.9865   79.5744   13.2172 C.ar    1  UNL1        0.0009
     27 C          62.7780   80.1274   12.0693 C.ar    1  UNL1        0.0114
     28 C          63.0421   81.6014   11.9814 C.ar    1  UNL1        0.0576
     29 CL         63.8336   82.1544   10.8335 Cl      1  UNL1       -0.0822
@<TRIPOS>BOND
     1     1     2    2
     2     2     3    1
     3     3     4    2
     4     4     5   ar
     5     5     6   ar
     6     6    23    1
     7    23    24   ar
     8    24    25   ar
     9    25    26   ar
    10    26    27   ar
    11    27    28   ar
    12    28    29    1
    13     6     7   ar
    14     7     8   ar
    15     8     9   ar
    16     9    10    2
    17    10    11    1
    18    11    12    2
    19    12    15    1
    20    15    16   ar
    21    16    17    1
    22    16    18   ar
    23    18    19   ar
    24    19    20   ar
    25    20    21   ar
    26    21    22    1
    27    12    13    1
    28    13    14    2
    29    14     2    1
    30     9     4   ar
    31    14    10    1
    32    28    23   ar
    33    21    15   ar
@<TRIPOS>MOLECULE
*****
 29 33 0 0 0
SMALL
GASTEIGER

@<TRIPOS>ATOM
      1 O          61.2853   89.0717    9.9726 O.2     1  UNL1       -0.2638
      2 C          61.9772   88.0636   10.8416 C.2     1  UNL1        0.3160
      3 N          61.8329   86.5989   10.5522 N.am    1  UNL1       -0.1720
      4 C          62.5248   85.5909   11.4212 C.ar    1  UNL1        0.0775
      5 C          62.3804   84.1262   11.1318 C.ar    1  UNL1        0.0168
      6 C          63.0724   83.1183   12.0008 C.ar    1  UNL1        0.0021
      7 C          63.9087   83.5750   13.1592 C.ar    1  UNL1        0.0002
      8 C          64.0531   85.0397   13.4486 C.ar    1  UNL1        0.0051
      9 C          63.3612   86.0476   12.5796 C.ar    1  UNL1        0.0623
     10 C          63.5055   87.5124   12.8690 C.2     1  UNL1        0.2419
     11 N          64.2579   88.2559   13.9325 N.2     1  UNL1       -0.0302
     12 C          64.0309   89.7235   13.7208 C.2     1  UNL1        0.3787
     13 N          63.1383   89.8869   12.5265 N.2     1  UNL1       -0.0255
     14 C          62.8136   88.5204   12.0000 C.2     1  UNL1        0.2907
     15 C          64.5972   90.8328   14.5568 C.ar    1  UNL1        0.1263
     16 C          65.6120   91.7697   13.9718 C.ar    1  UNL1        0.1484
     17 F          66.0606   91.5974   12.5509 F       1  UNL1       -0.2039
     18 C          66.1782   92.8790   14.8077 C.ar    1  UNL1        0.0300
     19 C          65.7296   93.0514   16.2286 C.ar    1  UNL1        0.0032
     20 C          64.7147   92.1145   16.8136 C.ar    1  UNL1        0.0118
     21 C          64.1485   91.0052   15.9777 C.ar    1  UNL1        0.0673
     22 CL         63.1336   90.0682   16.5627 Cl      1  UNL1       -0.0819
     23 C          62.9280   81.6535   11.7114 C.ar    1  UNL1        0.0106
     24 C          63.1844   81.1335   10.3279 C.ar    1  UNL1        0.0008
     25 C          63.0400   79.6688   10.0385 C.ar    1  UNL1        0.0001
     26 C          62.6393   78.7240   11.1325 C.ar    1  UNL1        0.0009
     27 C          62.3829   79.2440   12.5160 C.ar    1  UNL1        0.0114
     28 C          62.5273   80.7088   12.8054 C.ar    1  UNL1        0.0576
     29 CL         62.2710   81.2288   14.1888 Cl      1  UNL1       -0.0822
@<TRIPOS>BOND
     1     1     2    2
     2     2     3    1
     3     3     4    2
     4     4     5   ar
     5     5     6   ar
     6     6    23    1
     7    23    24   ar
     8    24    25   ar
     9    25    26   ar
    10    26    27   ar
    11    27    28   ar
    12    28    29    1
    13     6     7   ar
    14     7     8   ar
    15     8     9   ar
    16     9    10    2
    17    10    11    1
    18    11    12    2
    19    12    15    1
    20    15    16   ar
    21    16    17    1
    22    16    18   ar
    23    18    19   ar
    24    19    20   ar
    25    20    21   ar
    26    21    22    1
    27    12    13    1
    28    13    14    2
    29    14     2    1
    30     9     4   ar
    31    14    10    1
    32    28    23   ar
    33    21    15   ar
@<TRIPOS>MOLECULE
*****
 29 33 0 0 0
SMALL
GASTEIGER

@<TRIPOS>ATOM
      1 O          61.0641   86.8640    9.4319 O.2     1  UNL1       -0.2638
      2 C          61.9188   86.8660   10.6647 C.2     1  UNL1        0.3160
      3 N          62.3985   88.1644   11.2426 N.am    1  UNL1       -0.1720
      4 C          63.2531   88.1664   12.4754 C.ar    1  UNL1        0.0775
      5 C          63.7328   89.4648   13.0533 C.ar    1  UNL1        0.0168
      6 C          64.5874   89.4668   14.2860 C.ar    1  UNL1        0.0021
      7 C          64.9623   88.1703   14.9408 C.ar    1  UNL1        0.0002
      8 C          64.4827   86.8719   14.3628 C.ar    1  UNL1        0.0051
      9 C          63.6281   86.8700   13.1301 C.ar    1  UNL1        0.0623
     10 C          63.1484   85.5715   12.5521 C.2     1  UNL1        0.2419
     11 N          63.3550   84.1474   12.9752 N.2     1  UNL1       -0.0302
     12 C          62.6281   83.2652   12.0040 C.2     1  UNL1        0.3787
     13 N          61.9722   84.1442   10.9806 N.2     1  UNL1       -0.0255
     14 C          62.2938   85.5696   11.3194 C.2     1  UNL1        0.2907
     15 C          62.5676   81.7670   12.0483 C.ar    1  UNL1        0.1263
     16 C          63.0039   80.9633   10.8594 C.ar    1  UNL1        0.1484
     17 F          63.5007   81.6577    9.6261 F       1  UNL1       -0.2039
     18 C          62.9435   79.4652   10.9038 C.ar    1  UNL1        0.0300
     19 C          62.4467   78.7709   12.1371 C.ar    1  UNL1        0.0032
     20 C          62.0104   79.5746   13.3260 C.ar    1  UNL1        0.0118
     21 C          62.0709   81.0727   13.2817 C.ar    1  UNL1        0.0673
     22 CL         61.6346   81.8765   14.4706 Cl      1  UNL1       -0.0819
     23 C          65.0671   90.7652   14.8641 C.ar    1  UNL1        0.0106
     24 C          66.1905   91.5097   14.2056 C.ar    1  UNL1        0.0008
     25 C          66.6702   92.8081   14.7835 C.ar    1  UNL1        0.0001
     26 C          66.0265   93.3620   16.0200 C.ar    1  UNL1        0.0009
     27 C          64.9031   92.6175   16.6785 C.ar    1  UNL1        0.0114
     28 C          64.4234   91.3190   16.1005 C.ar    1  UNL1        0.0576
     29 CL         63.2999   90.5745   16.7590 Cl      1  UNL1       -0.0822
@<TRIPOS>BOND
     1     1     2    2
     2     2     3    1
     3     3     4    2
     4     4     5   ar
     5     5     6   ar
     6     6    23    1
     7    23    24   ar
     8    24    25   ar
     9    25    26   ar
    10    26    27   ar
    11    27    28   ar
    12    28    29    1
    13     6     7   ar
    14     7     8   ar
    15     8     9   ar
    16     9    10    2
    17    10    11    1
    18    11    12    2
    19    12    15    1
    20    15    16   ar
    21    16    17    1
    22    16    18   ar
    23    18    19   ar
    24    19    20   ar
    25    20    21   ar
    26    21    22    1
    27    12    13    1
    28    13    14    2
    29    14     2    1
    30     9     4   ar
    31    14    10    1
    32    28    23   ar
    33    21    15   ar
@<TRIPOS>MOLECULE
*****
 29 33 0 0 0
SMALL
GASTEIGER

@<TRIPOS>ATOM
      1 O          63.1737   88.6642   18.0278 O.2     1  UNL1       -0.2638
      2 C          63.3176   88.0005   16.6903 C.2     1  UNL1        0.3160
      3 N          62.9491   86.5557   16.5265 N.am    1  UNL1       -0.1720
      4 C          63.0930   85.8920   15.1890 C.ar    1  UNL1        0.0775
      5 C          62.7245   84.4472   15.0252 C.ar    1  UNL1        0.0168
      6 C          62.8684   83.7836   13.6877 C.ar    1  UNL1        0.0021
      7 C          63.3807   84.5646   12.5141 C.ar    1  UNL1        0.0002
      8 C          63.7492   86.0094   12.6779 C.ar    1  UNL1        0.0051
      9 C          63.6053   86.6731   14.0153 C.ar    1  UNL1        0.0623
     10 C          63.9738   88.1179   14.1792 C.2     1  UNL1        0.2419
     11 N          64.5019   89.1349   13.2114 N.2     1  UNL1       -0.0302
     12 C          64.6844   90.4273   13.9508 C.2     1  UNL1        0.3787
     13 N          64.2691   90.2089   15.3755 N.2     1  UNL1       -0.0255
     14 C          63.8299   88.7816   15.5166 C.2     1  UNL1        0.2907
     15 C          65.1930   91.7124   13.3677 C.ar    1  UNL1        0.1263
     16 C          64.8576   92.0784   11.9523 C.ar    1  UNL1        0.1484
     17 F          64.0136   91.1593   11.1198 F       1  UNL1       -0.2039
     18 C          65.3662   93.3634   11.3693 C.ar    1  UNL1        0.0300
     19 C          66.2101   94.2825   12.2017 C.ar    1  UNL1        0.0032
     20 C          66.5455   93.9166   13.6172 C.ar    1  UNL1        0.0118
     21 C          66.0370   92.6315   14.2001 C.ar    1  UNL1        0.0673
     22 CL         66.3724   92.2654   15.6157 Cl      1  UNL1       -0.0819
     23 C          62.4999   82.3387   13.5239 C.ar    1  UNL1        0.0106
     24 C          61.3903   81.7501   14.3438 C.ar    1  UNL1        0.0008
     25 C          61.0219   80.3053   14.1800 C.ar    1  UNL1        0.0001
     26 C          61.7629   79.4492   13.1962 C.ar    1  UNL1        0.0009
     27 C          62.8725   80.0378   12.3762 C.ar    1  UNL1        0.0114
     28 C          63.2410   81.4827   12.5401 C.ar    1  UNL1        0.0576
     29 CL         64.3506   82.0713   11.7201 Cl      1  UNL1       -0.0822
@<TRIPOS>BOND
     1     1     2    2
     2     2     3    1
     3     3     4    2
     4     4     5   ar
     5     5     6   ar
     6     6    23    1
     7    23    24   ar
     8    24    25   ar
     9    25    26   ar
    10    26    27   ar
    11    27    28   ar
    12    28    29    1
    13     6     7   ar
    14     7     8   ar
    15     8     9   ar
    16     9    10    2
    17    10    11    1
    18    11    12    2
    19    12    15    1
    20    15    16   ar
    21    16    17    1
    22    16    18   ar
    23    18    19   ar
    24    19    20   ar
    25    20    21   ar
    26    21    22    1
    27    12    13    1
    28    13    14    2
    29    14     2    1
    30     9     4   ar
    31    14    10    1
    32    28    23   ar
    33    21    15   ar
@<TRIPOS>MOLECULE
*****
 29 33 0 0 0
SMALL
GASTEIGER

@<TRIPOS>ATOM
      1 O          61.1877   86.8176    9.4696 O.2     1  UNL1       -0.2638
      2 C          62.0106   86.8576   10.7232 C.2     1  UNL1        0.3160
      3 N          62.5108   88.1697   11.2505 N.am    1  UNL1       -0.1720
      4 C          63.3336   88.2097   12.5041 C.ar    1  UNL1        0.0775
      5 C          63.8338   89.5218   13.0314 C.ar    1  UNL1        0.0168
      6 C          64.6566   89.5617   14.2849 C.ar    1  UNL1        0.0021
      7 C          64.9792   88.2895   15.0112 C.ar    1  UNL1        0.0002
      8 C          64.4790   86.9774   14.4839 C.ar    1  UNL1        0.0051
      9 C          63.6562   86.9375   13.2303 C.ar    1  UNL1        0.0623
     10 C          63.1560   85.6253   12.7030 C.2     1  UNL1        0.2419
     11 N          63.3127   84.2186   13.1996 N.2     1  UNL1       -0.0302
     12 C          62.5867   83.3093   12.2530 C.2     1  UNL1        0.3787
     13 N          61.9814   84.1540   11.1713 N.2     1  UNL1       -0.0255
     14 C          62.3332   85.5854   11.4495 C.2     1  UNL1        0.2907
     15 C          62.4842   81.8172   12.3679 C.ar    1  UNL1        0.1263
     16 C          61.8748   81.1993   13.5913 C.ar    1  UNL1        0.1484
     17 F          61.3680   82.0734   14.6999 F       1  UNL1       -0.2039
     18 C          61.7723   79.7072   13.7061 C.ar    1  UNL1        0.0300
     19 C          62.2791   78.8331   12.5975 C.ar    1  UNL1        0.0032
     20 C          62.8885   79.4510   11.3741 C.ar    1  UNL1        0.0118
     21 C          62.9910   80.9430   11.2593 C.ar    1  UNL1        0.0673
     22 CL         63.6004   81.5610   10.0358 Cl      1  UNL1       -0.0819
     23 C          65.1569   90.8739   14.8123 C.ar    1  UNL1        0.0106
     24 C          66.2523   91.6030   14.0922 C.ar    1  UNL1        0.0008
     25 C          66.7525   92.9151   14.6195 C.ar    1  UNL1        0.0001
     26 C          66.1574   93.4982   15.8669 C.ar    1  UNL1        0.0009
     27 C          65.0621   92.7690   16.5870 C.ar    1  UNL1        0.0114
     28 C          64.5618   91.4568   16.0596 C.ar    1  UNL1        0.0576
     29 CL         63.4665   90.7277   16.7797 Cl      1  UNL1       -0.0822
@<TRIPOS>BOND
     1     1     2    2
     2     2     3    1
     3     3     4    2
     4     4     5   ar
     5     5     6   ar
     6     6    23    1
     7    23    24   ar
     8    24    25   ar
     9    25    26   ar
    10    26    27   ar
    11    27    28   ar
    12    28    29    1
    13     6     7   ar
    14     7     8   ar
    15     8     9   ar
    16     9    10    2
    17    10    11    1
    18    11    12    2
    19    12    15    1
    20    15    16   ar
    21    16    17    1
    22    16    18   ar
    23    18    19   ar
    24    19    20   ar
    25    20    21   ar
    26    21    22    1
    27    12    13    1
    28    13    14    2
    29    14     2    1
    30     9     4   ar
    31    14    10    1
    32    28    23   ar
    33    21    15   ar
@<TRIPOS>MOLECULE
*****
 29 33 0 0 0
SMALL
GASTEIGER

@<TRIPOS>ATOM
      1 O          56.0066   90.9775    5.4826 O.2     1  UNL1       -0.2638
      2 C          57.4511   91.1348    5.1102 C.2     1  UNL1        0.3160
      3 N          57.8347   91.9867    3.9367 N.am    1  UNL1       -0.1720
      4 C          59.2793   92.1440    3.5644 C.ar    1  UNL1        0.0775
      5 C          59.6629   92.9958    2.3909 C.ar    1  UNL1        0.0168
      6 C          61.1074   93.1530    2.0186 C.ar    1  UNL1        0.0021
      7 C          62.1683   92.4584    2.8198 C.ar    1  UNL1        0.0002
      8 C          61.7847   91.6066    3.9933 C.ar    1  UNL1        0.0051
      9 C          60.3402   91.4494    4.3656 C.ar    1  UNL1        0.0623
     10 C          59.9566   90.5975    5.5392 C.2     1  UNL1        0.2419
     11 N          60.7749   89.7969    6.5084 N.2     1  UNL1       -0.0302
     12 C          59.8361   89.1449    7.4798 C.2     1  UNL1        0.3787
     13 N          58.4376   89.5425    7.1108 N.2     1  UNL1       -0.0255
     14 C          58.5121   90.4402    5.9114 C.2     1  UNL1        0.2907
     15 C          60.2272   88.2520    8.6199 C.ar    1  UNL1        0.1263
     16 C          60.5502   86.8094    8.3661 C.ar    1  UNL1        0.1484
     17 F          60.4821   86.2596    6.9722 F       1  UNL1       -0.2039
     18 C          60.9413   85.9166    9.5062 C.ar    1  UNL1        0.0300
     19 C          61.0093   86.4664   10.9002 C.ar    1  UNL1        0.0032
     20 C          60.6864   87.9091   11.1540 C.ar    1  UNL1        0.0118
     21 C          60.2953   88.8019   10.0138 C.ar    1  UNL1        0.0673
     22 CL         59.9723   90.2446   10.2676 Cl      1  UNL1       -0.0819
     23 C          61.4910   94.0049    0.8450 C.ar    1  UNL1        0.0106
     24 C          62.1662   95.3260    1.0661 C.ar    1  UNL1        0.0008
     25 C          62.5499   96.1779   -0.1074 C.ar    1  UNL1        0.0001
     26 C          62.2583   95.7087   -1.5020 C.ar    1  UNL1        0.0009
     27 C          61.5831   94.3876   -1.7231 C.ar    1  UNL1        0.0114
     28 C          61.1994   93.5357   -0.5495 C.ar    1  UNL1        0.0576
     29 CL         60.5242   92.2147   -0.7706 Cl      1  UNL1       -0.0822
@<TRIPOS>BOND
     1     1     2    2
     2     2     3    1
     3     3     4    2
     4     4     5   ar
     5     5     6   ar
     6     6    23    1
     7    23    24   ar
     8    24    25   ar
     9    25    26   ar
    10    26    27   ar
    11    27    28   ar
    12    28    29    1
    13     6     7   ar
    14     7     8   ar
    15     8     9   ar
    16     9    10    2
    17    10    11    1
    18    11    12    2
    19    12    15    1
    20    15    16   ar
    21    16    17    1
    22    16    18   ar
    23    18    19   ar
    24    19    20   ar
    25    20    21   ar
    26    21    22    1
    27    12    13    1
    28    13    14    2
    29    14     2    1
    30     9     4   ar
    31    14    10    1
    32    28    23   ar
    33    21    15   ar
