@<TRIPOS>MOLECULE
*****
 30 34 0 0 0
SMALL
GASTEIGER

@<TRIPOS>ATOM
      1 C          62.1475   85.9112   10.8914 C.ar    1  UNL1        0.0846
      2 C          60.9937   86.1543    9.9643 C.ar    1  UNL1        0.0370
      3 C          60.5900   87.5931   10.0939 C.ar    1  UNL1        0.0967
      4 N          61.4944   88.2393   11.1012 N.ar    1  UNL1       -0.2452
      5 N          62.4570   87.1998   11.5940 N.ar    1  UNL1       -0.1730
      6 C          62.8657   84.6083   11.0823 C.3     1  UNL1        0.0757
      7 N          64.2005   85.4536   16.0323 N.pl3   1  UNL1       -0.3441
      8 C          63.7883   84.5109   14.9409 C.ar    1  UNL1        0.1035
      9 C          63.5332   85.0309   13.5573 C.ar    1  UNL1        0.0297
     10 C          63.1209   84.0882   12.4659 C.ar    1  UNL1        0.0090
     11 C          62.9639   82.6253   12.7580 C.ar    1  UNL1        0.1366
     12 N          62.5724   81.4651   11.8915 N.ar    1  UNL1       -0.1258
     13 N          62.5857   80.2279   12.7396 N.ar    1  UNL1       -0.0406
     14 N          62.9854   80.6236   14.1303 N.ar    1  UNL1       -0.1095
     15 C          63.2191   82.1051   14.1416 C.ar    1  UNL1        0.1838
     16 N          63.6313   83.0480   15.2330 N.ar    1  UNL1       -0.3249
     17 H          64.3036   86.4137   15.8406 H       1  UNL1        0.1437
     18 H          64.3680   85.1122   16.9404 H       1  UNL1        0.1437
     19 H          63.7988   82.7066   16.1412 H       1  UNL1        0.1686
     20 C          61.4449   89.6732   11.5388 C.3     1  UNL1        0.1538
     21 C          62.7186   90.4288   11.7777 C.ar    1  UNL1        0.0021
     22 C          63.3195   91.2524   10.6774 C.ar    1  UNL1       -0.0023
     23 C          64.5931   92.0081   10.9162 C.ar    1  UNL1       -0.0003
     24 C          65.2657   91.9401   12.2553 C.ar    1  UNL1       -0.0000
     25 C          66.5393   92.6957   12.4941 C.ar    1  UNL1       -0.0000
     26 C          67.2118   92.6277   13.8331 C.ar    1  UNL1       -0.0000
     27 C          66.6109   91.8041   14.9333 C.ar    1  UNL1       -0.0000
     28 C          65.3373   91.0485   14.6945 C.ar    1  UNL1       -0.0000
     29 C          64.6647   91.1165   13.3555 C.ar    1  UNL1       -0.0003
     30 C          63.3911   90.3608   13.1167 C.ar    1  UNL1       -0.0023
@<TRIPOS>BOND
     1     7     8    1
     2     8     9   ar
     3     9    10   ar
     4    10     6    1
     5     6     1    1
     6     1     2   ar
     7     2     3   ar
     8     3     4   ar
     9     4    20    1
    10    20    21    1
    11    21    22   ar
    12    22    23   ar
    13    23    24   ar
    14    24    25   ar
    15    25    26   ar
    16    26    27   ar
    17    27    28   ar
    18    28    29   ar
    19    29    30   ar
    20     4     5   ar
    21    10    11   ar
    22    11    12   ar
    23    12    13   ar
    24    13    14   ar
    25    14    15   ar
    26    15    16   ar
    27    16     8   ar
    28     5     1   ar
    29    15    11    1
    30    30    21   ar
    31    29    24   ar
    32     7    17    1
    33     7    18    1
    34    16    19    1
@<TRIPOS>MOLECULE
*****
 30 34 0 0 0
SMALL
GASTEIGER

@<TRIPOS>ATOM
      1 C          62.2732   85.7678   10.8062 C.ar    1  UNL1        0.0846
      2 C          61.1331   85.9108    9.8420 C.ar    1  UNL1        0.0370
      3 C          60.6543   87.3313    9.8974 C.ar    1  UNL1        0.0967
      4 N          61.4986   88.0662   10.8960 N.ar    1  UNL1       -0.2452
      5 N          62.4991   87.1000   11.4576 N.ar    1  UNL1       -0.1730
      6 C          63.0508   84.5131   11.0723 C.3     1  UNL1        0.0757
      7 N          61.7635   80.1454   13.5753 N.pl3   1  UNL1       -0.3441
      8 C          62.2041   81.5788   13.6066 C.ar    1  UNL1        0.1035
      9 C          62.4071   82.3292   12.3238 C.ar    1  UNL1        0.0297
     10 C          62.8478   83.7627   12.3551 C.ar    1  UNL1        0.0090
     11 C          63.0854   84.4458   13.6692 C.ar    1  UNL1        0.1366
     12 N          63.5206   85.8398   14.0115 N.ar    1  UNL1       -0.1258
     13 N          63.5866   85.9510   15.5059 N.ar    1  UNL1       -0.0406
     14 N          63.1922   84.6256   16.0872 N.ar    1  UNL1       -0.1095
     15 C          62.8825   83.6953   14.9521 C.ar    1  UNL1        0.1838
     16 N          62.4418   82.2619   14.9207 N.ar    1  UNL1       -0.3249
     17 H          61.6075   79.6971   12.7128 H       1  UNL1        0.1437
     18 H          61.6302   79.6529   14.4173 H       1  UNL1        0.1437
     19 H          62.3085   81.7693   15.7627 H       1  UNL1        0.1686
     20 C          61.3657   89.5134   11.2677 C.3     1  UNL1        0.1538
     21 C          62.5914   90.3308   11.5503 C.ar    1  UNL1        0.0021
     22 C          63.1830   91.1920   10.4741 C.ar    1  UNL1       -0.0023
     23 C          64.4086   92.0094   10.7567 C.ar    1  UNL1       -0.0003
     24 C          65.0426   91.9655   12.1155 C.ar    1  UNL1       -0.0000
     25 C          66.2681   92.7828   12.3980 C.ar    1  UNL1       -0.0000
     26 C          66.9020   92.7389   13.7568 C.ar    1  UNL1       -0.0000
     27 C          66.3104   91.8776   14.8329 C.ar    1  UNL1       -0.0000
     28 C          65.0848   91.0603   14.5504 C.ar    1  UNL1       -0.0000
     29 C          64.4509   91.1042   13.1917 C.ar    1  UNL1       -0.0003
     30 C          63.2253   90.2868   12.9090 C.ar    1  UNL1       -0.0023
@<TRIPOS>BOND
     1     7     8    1
     2     8     9   ar
     3     9    10   ar
     4    10     6    1
     5     6     1    1
     6     1     2   ar
     7     2     3   ar
     8     3     4   ar
     9     4    20    1
    10    20    21    1
    11    21    22   ar
    12    22    23   ar
    13    23    24   ar
    14    24    25   ar
    15    25    26   ar
    16    26    27   ar
    17    27    28   ar
    18    28    29   ar
    19    29    30   ar
    20     4     5   ar
    21    10    11   ar
    22    11    12   ar
    23    12    13   ar
    24    13    14   ar
    25    14    15   ar
    26    15    16   ar
    27    16     8   ar
    28     5     1   ar
    29    15    11    1
    30    30    21   ar
    31    29    24   ar
    32     7    17    1
    33     7    18    1
    34    16    19    1
@<TRIPOS>MOLECULE
*****
 30 34 0 0 0
SMALL
GASTEIGER

@<TRIPOS>ATOM
      1 C          62.8368   90.0902   11.8303 C.ar    1  UNL1        0.0846
      2 C          61.9429   90.8187   10.8710 C.ar    1  UNL1        0.0370
      3 C          61.4002   89.8194    9.8928 C.ar    1  UNL1        0.0967
      4 N          61.9588   88.4731   10.2476 N.ar    1  UNL1       -0.2452
      5 N          62.8466   88.6406   11.4450 N.ar    1  UNL1       -0.1730
      6 C          63.5887   90.7036   12.9740 C.3     1  UNL1        0.0757
      7 N          66.2365   93.6862    9.6434 N.pl3   1  UNL1       -0.3441
      8 C          65.9860   93.2085   11.0430 C.ar    1  UNL1        0.1035
      9 C          64.9126   92.1949   11.3086 C.ar    1  UNL1        0.0297
     10 C          64.6621   91.7172   12.7083 C.ar    1  UNL1        0.0090
     11 C          65.4848   92.2530   13.8423 C.ar    1  UNL1        0.1366
     12 N          65.4674   91.9717   15.3156 N.ar    1  UNL1       -0.1258
     13 N          66.5299   92.8115   15.9605 N.ar    1  UNL1       -0.0406
     14 N          67.2041   93.6117   14.8857 N.ar    1  UNL1       -0.1095
     15 C          66.5582   93.2667   13.5766 C.ar    1  UNL1        0.1838
     16 N          66.8087   93.7443   12.1769 N.ar    1  UNL1       -0.3249
     17 H          65.6965   93.3345    8.8991 H       1  UNL1        0.1437
     18 H          66.9410   94.3515    9.4690 H       1  UNL1        0.1437
     19 H          67.5132   94.4096   12.0025 H       1  UNL1        0.1686
     20 C          61.6787   87.1856    9.5308 C.3     1  UNL1        0.1538
     21 C          62.2991   85.9081   10.0136 C.ar    1  UNL1        0.0021
     22 C          63.0867   85.0520    9.0665 C.ar    1  UNL1       -0.0023
     23 C          63.7071   83.7745    9.5492 C.ar    1  UNL1       -0.0003
     24 C          63.5400   83.3530   10.9791 C.ar    1  UNL1       -0.0000
     25 C          64.1605   82.0756   11.4618 C.ar    1  UNL1       -0.0000
     26 C          63.9934   81.6542   12.8917 C.ar    1  UNL1       -0.0000
     27 C          63.2058   82.5102   13.8388 C.ar    1  UNL1       -0.0000
     28 C          62.5854   83.7877   13.3560 C.ar    1  UNL1       -0.0000
     29 C          62.7525   84.2091   11.9262 C.ar    1  UNL1       -0.0003
     30 C          62.1321   85.4866   11.4434 C.ar    1  UNL1       -0.0023
@<TRIPOS>BOND
     1     7     8    1
     2     8     9   ar
     3     9    10   ar
     4    10     6    1
     5     6     1    1
     6     1     2   ar
     7     2     3   ar
     8     3     4   ar
     9     4    20    1
    10    20    21    1
    11    21    22   ar
    12    22    23   ar
    13    23    24   ar
    14    24    25   ar
    15    25    26   ar
    16    26    27   ar
    17    27    28   ar
    18    28    29   ar
    19    29    30   ar
    20     4     5   ar
    21    10    11   ar
    22    11    12   ar
    23    12    13   ar
    24    13    14   ar
    25    14    15   ar
    26    15    16   ar
    27    16     8   ar
    28     5     1   ar
    29    15    11    1
    30    30    21   ar
    31    29    24   ar
    32     7    17    1
    33     7    18    1
    34    16    19    1
@<TRIPOS>MOLECULE
*****
 30 34 0 0 0
SMALL
GASTEIGER

@<TRIPOS>ATOM
      1 C          62.1875   90.1460   10.4239 C.ar    1  UNL1        0.0846
      2 C          60.6942   90.1528   10.2816 C.ar    1  UNL1        0.0370
      3 C          60.2733   88.8159    9.7474 C.ar    1  UNL1        0.0967
      4 N          61.5065   87.9827    9.5595 N.ar    1  UNL1       -0.2452
      5 N          62.6894   88.8048    9.9775 N.ar    1  UNL1       -0.1730
      6 C          63.0306   91.2811   10.9245 C.3     1  UNL1        0.0757
      7 N          63.5646   89.0261   15.5752 N.pl3   1  UNL1       -0.3441
      8 C          64.0196   90.0310   14.5589 C.ar    1  UNL1        0.1035
      9 C          63.2975   90.1536   13.2499 C.ar    1  UNL1        0.0297
     10 C          63.7527   91.1585   12.2335 C.ar    1  UNL1        0.0090
     11 C          64.9299   92.0408   12.5261 C.ar    1  UNL1        0.1366
     12 N          65.6030   93.1150   11.7242 N.ar    1  UNL1       -0.1258
     13 N          66.7412   93.6563   12.5376 N.ar    1  UNL1       -0.0406
     14 N          66.7714   92.9166   13.8423 N.ar    1  UNL1       -0.1095
     15 C          65.6520   91.9183   13.8352 C.ar    1  UNL1        0.1838
     16 N          65.1968   90.9133   14.8515 N.ar    1  UNL1       -0.3249
     17 H          62.7919   88.4470   15.3832 H       1  UNL1        0.1437
     18 H          64.0385   88.9457   16.4344 H       1  UNL1        0.1437
     19 H          65.6708   90.8329   15.7107 H       1  UNL1        0.1686
     20 C          61.5491   86.5747    9.0440 C.3     1  UNL1        0.1538
     21 C          62.2466   85.5075    9.8344 C.ar    1  UNL1        0.0021
     22 C          63.1498   84.5306    9.1417 C.ar    1  UNL1       -0.0023
     23 C          63.8472   83.4634    9.9320 C.ar    1  UNL1       -0.0003
     24 C          63.6414   83.3730   11.4151 C.ar    1  UNL1       -0.0000
     25 C          64.3387   82.3058   12.2054 C.ar    1  UNL1       -0.0000
     26 C          64.1328   82.2154   13.6884 C.ar    1  UNL1       -0.0000
     27 C          63.2295   83.1922   14.3811 C.ar    1  UNL1       -0.0000
     28 C          62.5322   84.2594   13.5908 C.ar    1  UNL1       -0.0000
     29 C          62.7381   84.3498   12.1078 C.ar    1  UNL1       -0.0003
     30 C          62.0406   85.4171   11.3174 C.ar    1  UNL1       -0.0023
@<TRIPOS>BOND
     1     7     8    1
     2     8     9   ar
     3     9    10   ar
     4    10     6    1
     5     6     1    1
     6     1     2   ar
     7     2     3   ar
     8     3     4   ar
     9     4    20    1
    10    20    21    1
    11    21    22   ar
    12    22    23   ar
    13    23    24   ar
    14    24    25   ar
    15    25    26   ar
    16    26    27   ar
    17    27    28   ar
    18    28    29   ar
    19    29    30   ar
    20     4     5   ar
    21    10    11   ar
    22    11    12   ar
    23    12    13   ar
    24    13    14   ar
    25    14    15   ar
    26    15    16   ar
    27    16     8   ar
    28     5     1   ar
    29    15    11    1
    30    30    21   ar
    31    29    24   ar
    32     7    17    1
    33     7    18    1
    34    16    19    1
@<TRIPOS>MOLECULE
*****
 30 34 0 0 0
SMALL
GASTEIGER

@<TRIPOS>ATOM
      1 C          62.4210   85.7418   10.7287 C.ar    1  UNL1        0.0846
      2 C          61.8231   86.2772    9.4615 C.ar    1  UNL1        0.0370
      3 C          61.5684   87.7431    9.6523 C.ar    1  UNL1        0.0967
      4 N          62.0089   88.1136   11.0376 N.ar    1  UNL1       -0.2452
      5 N          62.5358   86.8767   11.7027 N.ar    1  UNL1       -0.1730
      6 C          62.8320   84.3210   10.9781 C.3     1  UNL1        0.0757
      7 N          64.5533   85.3835   15.7642 N.pl3   1  UNL1       -0.3441
      8 C          64.0240   84.4005   14.7626 C.ar    1  UNL1        0.1035
      9 C          63.6926   84.8523   13.3712 C.ar    1  UNL1        0.0297
     10 C          63.1633   83.8692   12.3695 C.ar    1  UNL1        0.0090
     11 C          62.9653   82.4343   12.7592 C.ar    1  UNL1        0.1366
     12 N          62.4636   81.2462   11.9932 N.ar    1  UNL1       -0.1258
     13 N          62.4848   80.0601   12.9112 N.ar    1  UNL1       -0.0406
     14 N          62.9997   80.5152   14.2446 N.ar    1  UNL1       -0.1095
     15 C          63.2967   81.9824   14.1507 C.ar    1  UNL1        0.1838
     16 N          63.8260   82.9656   15.1523 N.ar    1  UNL1       -0.3249
     17 H          64.6832   86.3253   15.5084 H       1  UNL1        0.1437
     18 H          64.7707   85.0870   16.6775 H       1  UNL1        0.1437
     19 H          64.0435   82.6691   16.0656 H       1  UNL1        0.1686
     20 C          61.9353   89.4809   11.6500 C.3     1  UNL1        0.1538
     21 C          63.0910   90.0087   12.4474 C.ar    1  UNL1        0.0021
     22 C          63.5595   89.2717   13.6670 C.ar    1  UNL1       -0.0023
     23 C          64.7151   89.7995   14.4645 C.ar    1  UNL1       -0.0003
     24 C          65.4024   91.0642   14.0423 C.ar    1  UNL1       -0.0000
     25 C          66.5581   91.5919   14.8397 C.ar    1  UNL1       -0.0000
     26 C          67.2453   92.8566   14.4175 C.ar    1  UNL1       -0.0000
     27 C          66.7769   93.5935   13.1979 C.ar    1  UNL1       -0.0000
     28 C          65.6212   93.0658   12.4004 C.ar    1  UNL1       -0.0000
     29 C          64.9340   91.8012   12.8226 C.ar    1  UNL1       -0.0003
     30 C          63.7783   91.2734   12.0252 C.ar    1  UNL1       -0.0023
@<TRIPOS>BOND
     1     7     8    1
     2     8     9   ar
     3     9    10   ar
     4    10     6    1
     5     6     1    1
     6     1     2   ar
     7     2     3   ar
     8     3     4   ar
     9     4    20    1
    10    20    21    1
    11    21    22   ar
    12    22    23   ar
    13    23    24   ar
    14    24    25   ar
    15    25    26   ar
    16    26    27   ar
    17    27    28   ar
    18    28    29   ar
    19    29    30   ar
    20     4     5   ar
    21    10    11   ar
    22    11    12   ar
    23    12    13   ar
    24    13    14   ar
    25    14    15   ar
    26    15    16   ar
    27    16     8   ar
    28     5     1   ar
    29    15    11    1
    30    30    21   ar
    31    29    24   ar
    32     7    17    1
    33     7    18    1
    34    16    19    1
@<TRIPOS>MOLECULE
*****
 30 34 0 0 0
SMALL
GASTEIGER

@<TRIPOS>ATOM
      1 C          62.5184   90.6747   10.6558 C.ar    1  UNL1        0.0846
      2 C          61.0578   90.8379   10.9558 C.ar    1  UNL1        0.0370
      3 C          60.3479   89.6013   10.4901 C.ar    1  UNL1        0.0967
      4 N          61.3699   88.6738    9.9022 N.ar    1  UNL1       -0.2452
      5 N          62.7112   89.3373   10.0046 N.ar    1  UNL1       -0.1730
      6 C          63.5967   91.6736   10.9544 C.3     1  UNL1        0.0757
      7 N          68.0330   92.5091   13.5275 N.pl3   1  UNL1       -0.3441
      8 C          66.6400   91.9547   13.4862 C.ar    1  UNL1        0.1035
      9 C          65.8149   92.0914   12.2409 C.ar    1  UNL1        0.0297
     10 C          64.4218   91.5369   12.1996 C.ar    1  UNL1        0.0090
     11 C          63.8537   90.8457   13.4036 C.ar    1  UNL1        0.1366
     12 N          62.5218   90.2039   13.6572 N.ar    1  UNL1       -0.1258
     13 N          62.5237   89.6705   15.0591 N.ar    1  UNL1       -0.0406
     14 N          63.8568   89.9826   15.6720 N.ar    1  UNL1       -0.1095
     15 C          64.6787   90.7089   14.6489 C.ar    1  UNL1        0.1838
     16 N          66.0719   91.2634   14.6901 N.ar    1  UNL1       -0.3249
     17 H          68.4059   92.9628   12.7373 H       1  UNL1        0.1437
     18 H          68.5745   92.4194   14.3448 H       1  UNL1        0.1437
     19 H          66.6134   91.1737   15.5073 H       1  UNL1        0.1686
     20 C          61.0981   87.3205    9.3151 C.3     1  UNL1        0.1538
     21 C          61.9152   86.1384    9.7453 C.ar    1  UNL1        0.0021
     22 C          62.7456   85.3953    8.7413 C.ar    1  UNL1       -0.0023
     23 C          63.5627   84.2133    9.1715 C.ar    1  UNL1       -0.0003
     24 C          63.5494   83.7743   10.6058 C.ar    1  UNL1       -0.0000
     25 C          64.3665   82.5923   11.0360 C.ar    1  UNL1       -0.0000
     26 C          64.3531   82.1533   12.4702 C.ar    1  UNL1       -0.0000
     27 C          63.5226   82.8964   13.4743 C.ar    1  UNL1       -0.0000
     28 C          62.7056   84.0785   13.0441 C.ar    1  UNL1       -0.0000
     29 C          62.7189   84.5174   11.6098 C.ar    1  UNL1       -0.0003
     30 C          61.9018   85.6995   11.1796 C.ar    1  UNL1       -0.0023
@<TRIPOS>BOND
     1     7     8    1
     2     8     9   ar
     3     9    10   ar
     4    10     6    1
     5     6     1    1
     6     1     2   ar
     7     2     3   ar
     8     3     4   ar
     9     4    20    1
    10    20    21    1
    11    21    22   ar
    12    22    23   ar
    13    23    24   ar
    14    24    25   ar
    15    25    26   ar
    16    26    27   ar
    17    27    28   ar
    18    28    29   ar
    19    29    30   ar
    20     4     5   ar
    21    10    11   ar
    22    11    12   ar
    23    12    13   ar
    24    13    14   ar
    25    14    15   ar
    26    15    16   ar
    27    16     8   ar
    28     5     1   ar
    29    15    11    1
    30    30    21   ar
    31    29    24   ar
    32     7    17    1
    33     7    18    1
    34    16    19    1
@<TRIPOS>MOLECULE
*****
 30 34 0 0 0
SMALL
GASTEIGER

@<TRIPOS>ATOM
      1 C          61.3273   89.1695   10.1159 C.ar    1  UNL1        0.0846
      2 C          60.1797   88.7209    9.2604 C.ar    1  UNL1        0.0370
      3 C          60.5443   87.3995    8.6513 C.ar    1  UNL1        0.0967
      4 N          61.9174   87.0314    9.1305 N.ar    1  UNL1       -0.2452
      5 N          62.4012   88.1253   10.0356 N.ar    1  UNL1       -0.1730
      6 C          61.3899   90.4393   10.9118 C.3     1  UNL1        0.0757
      7 N          65.8522   92.9824   10.1242 N.pl3   1  UNL1       -0.3441
      8 C          64.9393   92.2107   11.0302 C.ar    1  UNL1        0.1035
      9 C          63.6211   91.7108   10.5180 C.ar    1  UNL1        0.0297
     10 C          62.7081   90.9391   11.4241 C.ar    1  UNL1        0.0090
     11 C          63.1134   90.6673   12.8425 C.ar    1  UNL1        0.1366
     12 N          62.4273   89.9398   13.9605 N.ar    1  UNL1       -0.1258
     13 N          63.3215   89.9900   15.1638 N.ar    1  UNL1       -0.0406
     14 N          64.5602   90.7486   14.7894 N.ar    1  UNL1       -0.1095
     15 C          64.4317   91.1671   13.3548 C.ar    1  UNL1        0.1838
     16 N          65.3445   91.9388   12.4486 N.ar    1  UNL1       -0.3249
     17 H          65.5862   93.1608    9.1932 H       1  UNL1        0.1437
     18 H          66.7174   93.3104   10.4604 H       1  UNL1        0.1437
     19 H          66.2097   92.2669   12.7848 H       1  UNL1        0.1686
     20 C          62.6736   85.7877    8.7681 C.3     1  UNL1        0.1538
     21 C          63.0104   84.7795    9.8265 C.ar    1  UNL1        0.0021
     22 C          63.8354   83.5756    9.4802 C.ar    1  UNL1       -0.0023
     23 C          64.1722   82.5674   10.5385 C.ar    1  UNL1       -0.0003
     24 C          63.6838   82.7631   11.9433 C.ar    1  UNL1       -0.0000
     25 C          64.0206   81.7549   13.0016 C.ar    1  UNL1       -0.0000
     26 C          63.5322   81.9506   14.4063 C.ar    1  UNL1       -0.0000
     27 C          62.7072   83.1545   14.7527 C.ar    1  UNL1       -0.0000
     28 C          62.3704   84.1627   13.6943 C.ar    1  UNL1       -0.0000
     29 C          62.8588   83.9670   12.2897 C.ar    1  UNL1       -0.0003
     30 C          62.5220   84.9752   11.2312 C.ar    1  UNL1       -0.0023
@<TRIPOS>BOND
     1     7     8    1
     2     8     9   ar
     3     9    10   ar
     4    10     6    1
     5     6     1    1
     6     1     2   ar
     7     2     3   ar
     8     3     4   ar
     9     4    20    1
    10    20    21    1
    11    21    22   ar
    12    22    23   ar
    13    23    24   ar
    14    24    25   ar
    15    25    26   ar
    16    26    27   ar
    17    27    28   ar
    18    28    29   ar
    19    29    30   ar
    20     4     5   ar
    21    10    11   ar
    22    11    12   ar
    23    12    13   ar
    24    13    14   ar
    25    14    15   ar
    26    15    16   ar
    27    16     8   ar
    28     5     1   ar
    29    15    11    1
    30    30    21   ar
    31    29    24   ar
    32     7    17    1
    33     7    18    1
    34    16    19    1
@<TRIPOS>MOLECULE
*****
 30 34 0 0 0
SMALL
GASTEIGER

@<TRIPOS>ATOM
      1 C          63.4063   84.4988    9.9601 C.ar    1  UNL1        0.0846
      2 C          62.7540   84.8321    8.6511 C.ar    1  UNL1        0.0370
      3 C          61.9836   86.1069    8.8284 C.ar    1  UNL1        0.0967
      4 N          62.1599   86.5615   10.2470 N.ar    1  UNL1       -0.2452
      5 N          63.0392   85.5677   10.9463 N.ar    1  UNL1       -0.1730
      6 C          64.2735   83.3061   10.2345 C.3     1  UNL1        0.0757
      7 N          62.5585   78.4051   10.0407 N.pl3   1  UNL1       -0.3441
      8 C          62.8412   79.6523   10.8244 C.ar    1  UNL1        0.1035
      9 C          63.4160   80.8556   10.1375 C.ar    1  UNL1        0.0297
     10 C          63.6987   82.1029   10.9213 C.ar    1  UNL1        0.0090
     11 C          63.4065   82.1470   12.3919 C.ar    1  UNL1        0.1366
     12 N          63.5789   83.2280   13.4175 N.ar    1  UNL1       -0.1258
     13 N          63.1106   82.6928   14.7382 N.ar    1  UNL1       -0.0406
     14 N          62.6488   81.2811   14.5288 N.ar    1  UNL1       -0.1095
     15 C          62.8316   80.9437   13.0788 C.ar    1  UNL1        0.1838
     16 N          62.5490   79.6965   12.2950 N.ar    1  UNL1       -0.3249
     17 H          62.7503   78.3761    9.0754 H       1  UNL1        0.1437
     18 H          62.1812   77.6154   10.4915 H       1  UNL1        0.1437
     19 H          62.1717   78.9067   12.7457 H       1  UNL1        0.1686
     20 C          61.5619   87.7937   10.8587 C.3     1  UNL1        0.1538
     21 C          62.4428   88.9494   11.2309 C.ar    1  UNL1        0.0021
     22 C          62.6168   90.0964   10.2799 C.ar    1  UNL1       -0.0023
     23 C          63.4975   91.2521   10.6520 C.ar    1  UNL1       -0.0003
     24 C          64.2044   91.2610   11.9750 C.ar    1  UNL1       -0.0000
     25 C          65.0851   92.4167   12.3471 C.ar    1  UNL1       -0.0000
     26 C          65.7919   92.4255   13.6701 C.ar    1  UNL1       -0.0000
     27 C          65.6178   91.2786   14.6211 C.ar    1  UNL1       -0.0000
     28 C          64.7371   90.1229   14.2490 C.ar    1  UNL1       -0.0000
     29 C          64.0303   90.1140   12.9260 C.ar    1  UNL1       -0.0003
     30 C          63.1495   88.9583   12.5539 C.ar    1  UNL1       -0.0023
@<TRIPOS>BOND
     1     7     8    1
     2     8     9   ar
     3     9    10   ar
     4    10     6    1
     5     6     1    1
     6     1     2   ar
     7     2     3   ar
     8     3     4   ar
     9     4    20    1
    10    20    21    1
    11    21    22   ar
    12    22    23   ar
    13    23    24   ar
    14    24    25   ar
    15    25    26   ar
    16    26    27   ar
    17    27    28   ar
    18    28    29   ar
    19    29    30   ar
    20     4     5   ar
    21    10    11   ar
    22    11    12   ar
    23    12    13   ar
    24    13    14   ar
    25    14    15   ar
    26    15    16   ar
    27    16     8   ar
    28     5     1   ar
    29    15    11    1
    30    30    21   ar
    31    29    24   ar
    32     7    17    1
    33     7    18    1
    34    16    19    1
@<TRIPOS>MOLECULE
*****
 30 34 0 0 0
SMALL
GASTEIGER

@<TRIPOS>ATOM
      1 C          62.9811   90.5616   11.9320 C.ar    1  UNL1        0.0846
      2 C          62.9057   91.0109   10.5029 C.ar    1  UNL1        0.0370
      3 C          62.2611   89.9156    9.7060 C.ar    1  UNL1        0.0967
      4 N          61.9382   88.7894   10.6427 N.ar    1  UNL1       -0.2452
      5 N          62.3832   89.1886   12.0184 N.ar    1  UNL1       -0.1730
      6 C          63.5540   91.3473   13.0741 C.3     1  UNL1        0.0757
      7 N          68.1825   91.2386   15.4330 N.pl3   1  UNL1       -0.3441
      8 C          67.3274   91.6402   14.2679 C.ar    1  UNL1        0.1035
      9 C          65.8683   91.2929   14.2536 C.ar    1  UNL1        0.0297
     10 C          65.0131   91.6945   13.0884 C.ar    1  UNL1        0.0090
     11 C          65.6172   92.4433   11.9376 C.ar    1  UNL1        0.1366
     12 N          65.0284   92.9677   10.6615 N.ar    1  UNL1       -0.1258
     13 N          66.1237   93.6390    9.8871 N.ar    1  UNL1       -0.0406
     14 N          67.3894   93.5295   10.6847 N.ar    1  UNL1       -0.1095
     15 C          67.0764   92.7906   11.9519 C.ar    1  UNL1        0.1838
     16 N          67.9315   92.3890   13.1171 N.ar    1  UNL1       -0.3249
     17 H          67.7860   90.7472   16.1883 H       1  UNL1        0.1437
     18 H          69.1402   91.4665   15.4423 H       1  UNL1        0.1437
     19 H          68.8892   92.6169   13.1265 H       1  UNL1        0.1686
     20 C          61.2849   87.4918   10.2693 C.3     1  UNL1        0.1538
     21 C          62.0284   86.2006   10.4428 C.ar    1  UNL1        0.0021
     22 C          62.6784   85.5447    9.2608 C.ar    1  UNL1       -0.0023
     23 C          63.4218   84.2535    9.4343 C.ar    1  UNL1       -0.0003
     24 C          63.5153   83.6182   10.7899 C.ar    1  UNL1       -0.0000
     25 C          64.2587   82.3270   10.9635 C.ar    1  UNL1       -0.0000
     26 C          64.3522   81.6918   12.3191 C.ar    1  UNL1       -0.0000
     27 C          63.7022   82.3477   13.5011 C.ar    1  UNL1       -0.0000
     28 C          62.9587   83.6388   13.3276 C.ar    1  UNL1       -0.0000
     29 C          62.8653   84.2741   11.9720 C.ar    1  UNL1       -0.0003
     30 C          62.1218   85.5653   11.7984 C.ar    1  UNL1       -0.0023
@<TRIPOS>BOND
     1     7     8    1
     2     8     9   ar
     3     9    10   ar
     4    10     6    1
     5     6     1    1
     6     1     2   ar
     7     2     3   ar
     8     3     4   ar
     9     4    20    1
    10    20    21    1
    11    21    22   ar
    12    22    23   ar
    13    23    24   ar
    14    24    25   ar
    15    25    26   ar
    16    26    27   ar
    17    27    28   ar
    18    28    29   ar
    19    29    30   ar
    20     4     5   ar
    21    10    11   ar
    22    11    12   ar
    23    12    13   ar
    24    13    14   ar
    25    14    15   ar
    26    15    16   ar
    27    16     8   ar
    28     5     1   ar
    29    15    11    1
    30    30    21   ar
    31    29    24   ar
    32     7    17    1
    33     7    18    1
    34    16    19    1
