@<TRIPOS>MOLECULE
*****
 17 18 0 0 0
SMALL
GASTEIGER

@<TRIPOS>ATOM
      1 C          63.8064   83.1167   11.7429 C.ar    1  UNL1        0.1386
      2 C          62.9935   84.0531   12.5867 C.ar    1  UNL1        0.0370
      3 C          62.2953   85.2196   11.9528 C.ar    1  UNL1        0.0062
      4 C          62.4100   85.4496   10.4750 C.ar    1  UNL1        0.0374
      5 C          63.2229   84.5131    9.6312 C.ar    1  UNL1        0.0062
      6 C          63.9211   83.3466   10.2651 C.ar    1  UNL1        0.0370
      7 C          61.7118   86.6160    9.8411 C.ar    1  UNL1        0.1765
      8 C          60.6423   86.5396    8.7921 C.ar    1  UNL1        0.0581
      9 C          60.2300   87.9401    8.4475 C.ar    1  UNL1        0.1011
     10 C          59.1863   88.3300    7.4432 C.3     1  UNL1        0.0557
     11 N          61.0446   88.8821    9.2836 N.ar    1  UNL1       -0.0813
     12 O          61.9604   88.0638   10.1449 O.2     1  UNL1       -0.3537
     13 O          64.5046   81.9502   12.3768 O.3     1  UNL1       -0.4755
     14 C          63.8495   81.2048   13.5016 C.3     1  UNL1        0.2054
     15 C          62.4759   80.6297   13.3206 C.3     1  UNL1        0.0473
     16 C          60.0229   80.4152   14.1492 C.3     1  UNL1        0.0001
     17 C          61.3320   81.1475   14.1413 C.3     1  UNL1        0.0038
@<TRIPOS>BOND
     1    16    17    1
     2    17    15    1
     3    15    14    1
     4    14    13    1
     5    13     1    1
     6     1     2   ar
     7     2     3   ar
     8     3     4   ar
     9     4     7    1
    10     7     8   ar
    11     8     9   ar
    12     9    10    1
    13     9    11   ar
    14    11    12   ar
    15     4     5   ar
    16     5     6   ar
    17     6     1   ar
    18    12     7   ar
@<TRIPOS>MOLECULE
*****
 17 18 0 0 0
SMALL
GASTEIGER

@<TRIPOS>ATOM
      1 C          62.3293   89.5527   10.6186 C.ar    1  UNL1        0.1386
      2 C          62.6834   89.0735   11.9952 C.ar    1  UNL1        0.0370
      3 C          63.6384   89.8621   12.8413 C.ar    1  UNL1        0.0062
      4 C          64.2393   91.1300   12.3110 C.ar    1  UNL1        0.0374
      5 C          63.8852   91.6093   10.9345 C.ar    1  UNL1        0.0062
      6 C          62.9302   90.8206   10.0883 C.ar    1  UNL1        0.0370
      7 C          65.1943   91.9187   13.1572 C.ar    1  UNL1        0.1765
      8 C          65.8910   91.4277   14.3915 C.ar    1  UNL1        0.0581
      9 C          66.7475   92.5424   14.9148 C.ar    1  UNL1        0.1011
     10 C          67.6185   92.4868   16.1348 C.3     1  UNL1        0.0557
     11 N          66.5802   93.7223   14.0039 N.ar    1  UNL1       -0.0813
     12 O          65.6203   93.3368   12.9176 O.2     1  UNL1       -0.3537
     13 O          61.3743   88.7641    9.7725 O.3     1  UNL1       -0.4755
     14 C          60.8357   87.4556   10.2703 C.3     1  UNL1        0.2054
     15 C          61.2798   86.1714    9.6352 C.3     1  UNL1        0.0473
     16 C          62.8538   85.0161    7.9211 C.3     1  UNL1        0.0001
     17 C          62.5975   86.1040    8.9215 C.3     1  UNL1        0.0038
@<TRIPOS>BOND
     1    16    17    1
     2    17    15    1
     3    15    14    1
     4    14    13    1
     5    13     1    1
     6     1     2   ar
     7     2     3   ar
     8     3     4   ar
     9     4     7    1
    10     7     8   ar
    11     8     9   ar
    12     9    10    1
    13     9    11   ar
    14    11    12   ar
    15     4     5   ar
    16     5     6   ar
    17     6     1   ar
    18    12     7   ar
@<TRIPOS>MOLECULE
*****
 17 18 0 0 0
SMALL
GASTEIGER

@<TRIPOS>ATOM
      1 C          64.0982   91.2390   12.4688 C.ar    1  UNL1        0.1386
      2 C          63.7450   89.9016   13.0487 C.ar    1  UNL1        0.0370
      3 C          63.0131   88.8921   12.2149 C.ar    1  UNL1        0.0062
      4 C          62.6343   89.2202   10.8011 C.ar    1  UNL1        0.0374
      5 C          62.9875   90.5576   10.2212 C.ar    1  UNL1        0.0062
      6 C          63.7194   91.5671   11.0550 C.ar    1  UNL1        0.0370
      7 C          61.9023   88.2107    9.9673 C.ar    1  UNL1        0.1765
      8 C          60.6050   88.4350    9.2485 C.ar    1  UNL1        0.0581
      9 C          60.2400   87.1627    8.5428 C.ar    1  UNL1        0.1011
     10 C          59.0179   86.9401    7.7021 C.3     1  UNL1        0.0557
     11 N          61.3118   86.1520    8.8254 N.ar    1  UNL1       -0.0813
     12 O          62.3391   86.7998    9.7058 O.2     1  UNL1       -0.3537
     13 O          64.8302   92.2485   13.3026 O.3     1  UNL1       -0.4755
     14 C          66.2394   92.6276   12.9558 C.3     1  UNL1        0.2054
     15 C          67.3880   91.8604   13.5408 C.3     1  UNL1        0.0473
     16 C          67.1616   92.8627   15.9271 C.3     1  UNL1        0.0001
     17 C          68.0180   92.3156   14.8238 C.3     1  UNL1        0.0038
@<TRIPOS>BOND
     1    16    17    1
     2    17    15    1
     3    15    14    1
     4    14    13    1
     5    13     1    1
     6     1     2   ar
     7     2     3   ar
     8     3     4   ar
     9     4     7    1
    10     7     8   ar
    11     8     9   ar
    12     9    10    1
    13     9    11   ar
    14    11    12   ar
    15     4     5   ar
    16     5     6   ar
    17     6     1   ar
    18    12     7   ar
@<TRIPOS>MOLECULE
*****
 17 18 0 0 0
SMALL
GASTEIGER

@<TRIPOS>ATOM
      1 C          64.2425   91.5122   12.1191 C.ar    1  UNL1        0.1386
      2 C          63.9267   90.2596   12.8814 C.ar    1  UNL1        0.0370
      3 C          63.1065   89.1789   12.2415 C.ar    1  UNL1        0.0062
      4 C          62.6022   89.3508   10.8394 C.ar    1  UNL1        0.0374
      5 C          62.9180   90.6034   10.0771 C.ar    1  UNL1        0.0062
      6 C          63.7382   91.6841   10.7169 C.ar    1  UNL1        0.0370
      7 C          61.7820   88.2701   10.1996 C.ar    1  UNL1        0.1765
      8 C          60.6944   88.4716    9.1864 C.ar    1  UNL1        0.0581
      9 C          60.1456   87.1241    8.8212 C.ar    1  UNL1        0.1011
     10 C          59.0421   86.8578    7.8408 C.3     1  UNL1        0.0557
     11 N          60.8941   86.0899    9.6087 N.ar    1  UNL1       -0.0813
     12 O          61.9055   86.7981   10.4605 O.2     1  UNL1       -0.3537
     13 O          65.0627   92.5929   12.7589 O.3     1  UNL1       -0.4755
     14 C          66.4913   92.7930   12.3479 C.3     1  UNL1        0.2054
     15 C          66.8471   92.8889   10.8939 C.3     1  UNL1        0.0473
     16 C          68.7526   92.5181    9.1671 C.3     1  UNL1        0.0001
     17 C          67.9419   92.0314   10.3315 C.3     1  UNL1        0.0038
@<TRIPOS>BOND
     1    16    17    1
     2    17    15    1
     3    15    14    1
     4    14    13    1
     5    13     1    1
     6     1     2   ar
     7     2     3   ar
     8     3     4   ar
     9     4     7    1
    10     7     8   ar
    11     8     9   ar
    12     9    10    1
    13     9    11   ar
    14    11    12   ar
    15     4     5   ar
    16     5     6   ar
    17     6     1   ar
    18    12     7   ar
@<TRIPOS>MOLECULE
*****
 17 18 0 0 0
SMALL
GASTEIGER

@<TRIPOS>ATOM
      1 C          62.8953   89.8706   11.1499 C.ar    1  UNL1        0.1386
      2 C          63.0944   89.1285   12.4381 C.ar    1  UNL1        0.0370
      3 C          63.9657   89.7101   13.5118 C.ar    1  UNL1        0.0062
      4 C          64.6378   91.0338   13.2972 C.ar    1  UNL1        0.0374
      5 C          64.4386   91.7759   12.0089 C.ar    1  UNL1        0.0062
      6 C          63.5674   91.1943   10.9353 C.ar    1  UNL1        0.0370
      7 C          65.5090   91.6154   14.3708 C.ar    1  UNL1        0.1765
      8 C          67.0089   91.6233   14.3812 C.ar    1  UNL1        0.0581
      9 C          67.4602   92.3040   15.6394 C.ar    1  UNL1        0.1011
     10 C          68.8828   92.5319   16.0569 C.3     1  UNL1        0.0557
     11 N          66.2392   92.7168   16.4066 N.ar    1  UNL1       -0.0813
     12 O          65.0333   92.2912   15.6226 O.2     1  UNL1       -0.3537
     13 O          62.0241   89.2890   10.0763 O.3     1  UNL1       -0.4755
     14 C          62.1224   87.8309    9.7385 C.3     1  UNL1        0.2054
     15 C          61.1589   86.8539   10.3445 C.3     1  UNL1        0.0473
     16 C          62.6730   84.8253   10.9295 C.3     1  UNL1        0.0001
     17 C          61.6444   85.8386   11.3362 C.3     1  UNL1        0.0038
@<TRIPOS>BOND
     1    16    17    1
     2    17    15    1
     3    15    14    1
     4    14    13    1
     5    13     1    1
     6     1     2   ar
     7     2     3   ar
     8     3     4   ar
     9     4     7    1
    10     7     8   ar
    11     8     9   ar
    12     9    10    1
    13     9    11   ar
    14    11    12   ar
    15     4     5   ar
    16     5     6   ar
    17     6     1   ar
    18    12     7   ar
@<TRIPOS>MOLECULE
*****
 17 18 0 0 0
SMALL
GASTEIGER

@<TRIPOS>ATOM
      1 C          62.5841   89.4516   10.5987 C.ar    1  UNL1        0.1386
      2 C          62.9558   89.0100   11.9832 C.ar    1  UNL1        0.0370
      3 C          63.8234   89.8824   12.8411 C.ar    1  UNL1        0.0062
      4 C          64.3195   91.1964   12.3146 C.ar    1  UNL1        0.0374
      5 C          63.9478   91.6380   10.9301 C.ar    1  UNL1        0.0062
      6 C          63.0801   90.7656   10.0722 C.ar    1  UNL1        0.0370
      7 C          65.1871   92.0688   13.1725 C.ar    1  UNL1        0.1765
      8 C          65.8746   91.6548   14.4398 C.ar    1  UNL1        0.0581
      9 C          66.6320   92.8385   14.9643 C.ar    1  UNL1        0.1011
     10 C          67.4629   92.8709   16.2128 C.3     1  UNL1        0.0557
     11 N          66.4127   93.9841   14.0212 N.ar    1  UNL1       -0.0813
     12 O          65.5197   93.5084   12.9138 O.2     1  UNL1       -0.3537
     13 O          61.7164   88.5792    9.7407 O.3     1  UNL1       -0.4755
     14 C          60.2275   88.5927    9.9216 C.3     1  UNL1        0.2054
     15 C          59.6344   88.3471   11.2773 C.3     1  UNL1        0.0473
     16 C          59.1976   90.8896   11.5862 C.3     1  UNL1        0.0001
     17 C          59.2749   89.5057   12.1597 C.3     1  UNL1        0.0038
@<TRIPOS>BOND
     1    16    17    1
     2    17    15    1
     3    15    14    1
     4    14    13    1
     5    13     1    1
     6     1     2   ar
     7     2     3   ar
     8     3     4   ar
     9     4     7    1
    10     7     8   ar
    11     8     9   ar
    12     9    10    1
    13     9    11   ar
    14    11    12   ar
    15     4     5   ar
    16     5     6   ar
    17     6     1   ar
    18    12     7   ar
@<TRIPOS>MOLECULE
*****
 17 18 0 0 0
SMALL
GASTEIGER

@<TRIPOS>ATOM
      1 C          62.4726   88.8405   11.1491 C.ar    1  UNL1        0.1386
      2 C          63.0638   88.4949   12.4836 C.ar    1  UNL1        0.0370
      3 C          63.9332   89.4865   13.1983 C.ar    1  UNL1        0.0062
      4 C          64.2114   90.8238   12.5785 C.ar    1  UNL1        0.0374
      5 C          63.6202   91.1694   11.2440 C.ar    1  UNL1        0.0062
      6 C          62.7509   90.1777   10.5293 C.ar    1  UNL1        0.0370
      7 C          65.0808   91.8155   13.2932 C.ar    1  UNL1        0.1765
      8 C          65.7676   91.5987   14.6090 C.ar    1  UNL1        0.0581
      9 C          66.5273   92.8473   14.9466 C.ar    1  UNL1        0.1011
     10 C          67.3583   93.0685   16.1756 C.3     1  UNL1        0.0557
     11 N          66.3100   93.8357   13.8394 N.ar    1  UNL1       -0.0813
     12 O          65.4160   93.1980   12.8176 O.2     1  UNL1       -0.3537
     13 O          61.6033   87.8488   10.4344 O.3     1  UNL1       -0.4755
     14 C          62.2004   86.9271    9.4127 C.3     1  UNL1        0.2054
     15 C          62.5267   85.5100    9.7807 C.3     1  UNL1        0.0473
     16 C          62.8628   83.6762   11.5902 C.3     1  UNL1        0.0001
     17 C          62.4989   85.0831   11.2184 C.3     1  UNL1        0.0038
@<TRIPOS>BOND
     1    16    17    1
     2    17    15    1
     3    15    14    1
     4    14    13    1
     5    13     1    1
     6     1     2   ar
     7     2     3   ar
     8     3     4   ar
     9     4     7    1
    10     7     8   ar
    11     8     9   ar
    12     9    10    1
    13     9    11   ar
    14    11    12   ar
    15     4     5   ar
    16     5     6   ar
    17     6     1   ar
    18    12     7   ar
@<TRIPOS>MOLECULE
*****
 17 18 0 0 0
SMALL
GASTEIGER

@<TRIPOS>ATOM
      1 C          63.3040   83.8100   10.3922 C.ar    1  UNL1        0.1386
      2 C          62.9148   84.4091   11.7111 C.ar    1  UNL1        0.0370
      3 C          62.3678   85.8046   11.7688 C.ar    1  UNL1        0.0062
      4 C          62.2099   86.6010   10.5075 C.ar    1  UNL1        0.0374
      5 C          62.5990   86.0019    9.1886 C.ar    1  UNL1        0.0062
      6 C          63.1460   84.6064    9.1309 C.ar    1  UNL1        0.0370
      7 C          61.6628   87.9965   10.5652 C.ar    1  UNL1        0.1765
      8 C          60.3847   88.4158   11.2290 C.ar    1  UNL1        0.0581
      9 C          60.2298   89.8961   11.0432 C.ar    1  UNL1        0.1011
     10 C          59.0922   90.7337   11.5476 C.3     1  UNL1        0.0557
     11 N          61.4122   90.3918   10.2646 N.ar    1  UNL1       -0.0813
     12 O          62.2978   89.2178    9.9691 O.2     1  UNL1       -0.3537
     13 O          63.8510   82.4145   10.3345 O.3     1  UNL1       -0.4755
     14 C          63.1434   81.3014   11.0489 C.3     1  UNL1        0.2054
     15 C          63.2504   81.1798   12.5401 C.3     1  UNL1        0.0473
     16 C          61.1503   80.9755   14.0561 C.3     1  UNL1        0.0001
     17 C          62.2712   80.3310   13.2956 C.3     1  UNL1        0.0038
@<TRIPOS>BOND
     1    16    17    1
     2    17    15    1
     3    15    14    1
     4    14    13    1
     5    13     1    1
     6     1     2   ar
     7     2     3   ar
     8     3     4   ar
     9     4     7    1
    10     7     8   ar
    11     8     9   ar
    12     9    10    1
    13     9    11   ar
    14    11    12   ar
    15     4     5   ar
    16     5     6   ar
    17     6     1   ar
    18    12     7   ar
@<TRIPOS>MOLECULE
*****
 17 18 0 0 0
SMALL
GASTEIGER

@<TRIPOS>ATOM
      1 C          62.3002   89.1421   11.2058 C.ar    1  UNL1        0.1386
      2 C          62.8561   88.9596   12.5869 C.ar    1  UNL1        0.0370
      3 C          63.8380   89.9511   13.1372 C.ar    1  UNL1        0.0062
      4 C          64.2640   91.1251   12.3064 C.ar    1  UNL1        0.0374
      5 C          63.7080   91.3076   10.9253 C.ar    1  UNL1        0.0062
      6 C          62.7261   90.3161   10.3750 C.ar    1  UNL1        0.0370
      7 C          65.2459   92.1166   12.8567 C.ar    1  UNL1        0.1765
      8 C          66.0114   91.9803   14.1394 C.ar    1  UNL1        0.0581
      9 C          66.8733   93.1979   14.2964 C.ar    1  UNL1        0.1011
     10 C          67.8046   93.4776   15.4386 C.3     1  UNL1        0.0557
     11 N          66.6404   94.0867   13.1107 N.ar    1  UNL1       -0.0813
     12 O          65.6346   93.4183   12.2210 O.2     1  UNL1       -0.3537
     13 O          61.3183   88.1507   10.6555 O.3     1  UNL1       -0.4755
     14 C          61.0411   88.1084    9.1819 C.3     1  UNL1        0.2054
     15 C          59.9614   88.9698    8.5968 C.3     1  UNL1        0.0473
     16 C          59.2037   89.7653    6.2424 C.3     1  UNL1        0.0001
     17 C          59.4104   88.6610    7.2362 C.3     1  UNL1        0.0038
@<TRIPOS>BOND
     1    16    17    1
     2    17    15    1
     3    15    14    1
     4    14    13    1
     5    13     1    1
     6     1     2   ar
     7     2     3   ar
     8     3     4   ar
     9     4     7    1
    10     7     8   ar
    11     8     9   ar
    12     9    10    1
    13     9    11   ar
    14    11    12   ar
    15     4     5   ar
    16     5     6   ar
    17     6     1   ar
    18    12     7   ar
