@<TRIPOS>MOLECULE
*****
 33 37 0 0 0
SMALL
GASTEIGER

@<TRIPOS>ATOM
      1 C          62.2135   89.6609   11.1263 C.ar    1  UNL1        0.0846
      2 C          60.7462   89.6798   11.4371 C.ar    1  UNL1        0.0370
      3 C          60.2028   88.3033   11.1920 C.ar    1  UNL1        0.0967
      4 N          61.3342   87.4338   10.7297 N.ar    1  UNL1       -0.2452
      5 N          62.5769   88.2729   10.6891 N.ar    1  UNL1       -0.1730
      6 C          63.1525   90.8256   11.2338 C.3     1  UNL1        0.0757
      7 N          63.4655   90.2928   16.3932 N.pl3   1  UNL1       -0.3441
      8 C          64.0150   90.8364   15.1076 C.ar    1  UNL1        0.1035
      9 C          63.3091   90.5592   13.8136 C.ar    1  UNL1        0.0297
     10 C          63.8586   91.1028   12.5280 C.ar    1  UNL1        0.0090
     11 C          65.1140   91.9236   12.5366 C.ar    1  UNL1        0.1366
     12 N          65.8870   92.5871   11.4356 N.ar    1  UNL1       -0.1258
     13 N          67.0706   93.2744   12.0493 N.ar    1  UNL1       -0.0406
     14 N          67.0293   93.0356   13.5296 N.ar    1  UNL1       -0.1095
     15 C          65.8200   92.2008   13.8308 C.ar    1  UNL1        0.1838
     16 N          65.2705   91.6571   15.1163 N.ar    1  UNL1       -0.3249
     17 H          62.6415   89.7541   16.3876 H       1  UNL1        0.1437
     18 H          63.9289   90.4747   17.2426 H       1  UNL1        0.1437
     19 H          65.7338   91.8391   15.9657 H       1  UNL1        0.1686
     20 C          61.2396   85.9803   10.3710 C.3     1  UNL1        0.1539
     21 C          62.3511   85.0430   10.7396 C.ar    1  UNL1        0.0051
     22 C          63.1058   84.3157    9.6664 C.ar    1  UNL1       -0.0021
     23 C          64.2173   83.3783   10.0350 C.ar    1  UNL1        0.0029
     24 C          64.5741   83.1682   11.4767 C.ar    1  UNL1        0.0369
     25 C          63.8194   83.8955   12.5498 C.ar    1  UNL1        0.1382
     26 C          62.7080   84.8328   12.1812 C.ar    1  UNL1        0.0346
     27 O          64.1763   83.6853   13.9916 O.3     1  UNL1       -0.4777
     28 C          63.6025   84.5856   15.0452 C.3     1  UNL1        0.1829
     29 C          64.2043   85.8714   15.5295 C.3     1  UNL1        0.0620
     30 C          63.2998   86.4386   16.5831 C.3     1  UNL1        0.0724
     31 N          62.1390   85.5034   16.7501 N.3     1  UNL1       -0.2944
     32 C          62.3261   84.3581   15.7996 C.3     1  UNL1        0.1127
     33 H          61.2685   85.9907   16.5378 H       1  UNL1        0.1234
@<TRIPOS>BOND
     1     7     8    1
     2     8     9   ar
     3     9    10   ar
     4    10     6    1
     5     6     1    1
     6     1     2   ar
     7     2     3   ar
     8     3     4   ar
     9     4    20    1
    10    20    21    1
    11    21    22   ar
    12    22    23   ar
    13    23    24   ar
    14    24    25   ar
    15    25    27    1
    16    28    27    1
    17    28    29    1
    18    29    30    1
    19    30    31    1
    20    31    32    1
    21    25    26   ar
    22     4     5   ar
    23    10    11   ar
    24    11    12   ar
    25    12    13   ar
    26    13    14   ar
    27    14    15   ar
    28    15    16   ar
    29    16     8   ar
    30     5     1   ar
    31    15    11    1
    32    26    21   ar
    33    32    28    1
    34     7    17    1
    35     7    18    1
    36    31    33    1
    37    16    19    1
@<TRIPOS>MOLECULE
*****
 33 37 0 0 0
SMALL
GASTEIGER

@<TRIPOS>ATOM
      1 C          62.1783   85.9571   10.9141 C.ar    1  UNL1        0.0846
      2 C          61.0368   86.2181    9.9766 C.ar    1  UNL1        0.0370
      3 C          60.6264   87.6523   10.1341 C.ar    1  UNL1        0.0967
      4 N          61.5142   88.2775   11.1689 N.ar    1  UNL1       -0.2452
      5 N          62.4733   87.2298   11.6509 N.ar    1  UNL1       -0.1730
      6 C          62.8983   84.6523   11.0847 C.3     1  UNL1        0.0757
      7 N          64.2944   85.4410   16.0274 N.pl3   1  UNL1       -0.3441
      8 C          63.8631   84.5116   14.9317 C.ar    1  UNL1        0.1035
      9 C          63.5964   85.0466   13.5561 C.ar    1  UNL1        0.0297
     10 C          63.1650   84.1172   12.4605 C.ar    1  UNL1        0.0090
     11 C          63.0005   82.6529   12.7407 C.ar    1  UNL1        0.1366
     12 N          62.5908   81.5039   11.8678 N.ar    1  UNL1       -0.1258
     13 N          62.6044   80.2587   12.7041 N.ar    1  UNL1       -0.0406
     14 N          63.0224   80.6382   14.0938 N.ar    1  UNL1       -0.1095
     15 C          63.2672   82.1179   14.1164 C.ar    1  UNL1        0.1838
     16 N          63.6985   83.0473   15.2119 N.ar    1  UNL1       -0.3249
     17 H          64.4025   86.4021   15.8435 H       1  UNL1        0.1437
     18 H          64.4695   85.0898   16.9303 H       1  UNL1        0.1437
     19 H          63.8736   82.6961   16.1149 H       1  UNL1        0.1686
     20 C          61.4535   89.7007   11.6391 C.3     1  UNL1        0.1539
     21 C          62.7193   90.4836   11.8254 C.ar    1  UNL1        0.0051
     22 C          63.3233   91.2198   10.6664 C.ar    1  UNL1       -0.0021
     23 C          64.5891   92.0027   10.8527 C.ar    1  UNL1        0.0029
     24 C          65.2510   92.0495   12.1980 C.ar    1  UNL1        0.0369
     25 C          64.6470   91.3133   13.3569 C.ar    1  UNL1        0.1382
     26 C          63.3812   90.5304   13.1706 C.ar    1  UNL1        0.0346
     27 O          65.3088   91.3601   14.7023 O.3     1  UNL1       -0.4777
     28 C          66.6766   91.9591   14.8448 C.3     1  UNL1        0.1829
     29 C          67.1216   92.8922   15.9317 C.3     1  UNL1        0.0620
     30 C          68.5596   93.2400   15.6841 C.3     1  UNL1        0.0724
     31 N          69.0033   92.5219   14.4441 N.3     1  UNL1       -0.2944
     32 C          67.8396   91.7303   13.9254 C.3     1  UNL1        0.1127
     33 H          69.7772   91.8953   14.6652 H       1  UNL1        0.1234
@<TRIPOS>BOND
     1     7     8    1
     2     8     9   ar
     3     9    10   ar
     4    10     6    1
     5     6     1    1
     6     1     2   ar
     7     2     3   ar
     8     3     4   ar
     9     4    20    1
    10    20    21    1
    11    21    22   ar
    12    22    23   ar
    13    23    24   ar
    14    24    25   ar
    15    25    27    1
    16    28    27    1
    17    28    29    1
    18    29    30    1
    19    30    31    1
    20    31    32    1
    21    25    26   ar
    22     4     5   ar
    23    10    11   ar
    24    11    12   ar
    25    12    13   ar
    26    13    14   ar
    27    14    15   ar
    28    15    16   ar
    29    16     8   ar
    30     5     1   ar
    31    15    11    1
    32    26    21   ar
    33    32    28    1
    34     7    17    1
    35     7    18    1
    36    31    33    1
    37    16    19    1
@<TRIPOS>MOLECULE
*****
 33 37 0 0 0
SMALL
GASTEIGER

@<TRIPOS>ATOM
      1 C          62.3905   89.9567   11.1317 C.ar    1  UNL1        0.0846
      2 C          60.9084   90.1349   11.2783 C.ar    1  UNL1        0.0370
      3 C          60.2605   88.7937   11.1017 C.ar    1  UNL1        0.0967
      4 N          61.3422   87.7865   10.8459 N.ar    1  UNL1       -0.2452
      5 N          62.6586   88.5053   10.8644 N.ar    1  UNL1       -0.1730
      6 C          63.4232   91.0397   11.2343 C.3     1  UNL1        0.0757
      7 N          67.3664   93.1396   13.8880 N.pl3   1  UNL1       -0.3441
      8 C          66.1053   92.3278   13.8606 C.ar    1  UNL1        0.1035
      9 C          65.3948   92.0897   12.5612 C.ar    1  UNL1        0.0297
     10 C          64.1337   91.2778   12.5338 C.ar    1  UNL1        0.0090
     11 C          63.5833   90.7042   13.8058 C.ar    1  UNL1        0.1366
     12 N          62.3690   89.8699   14.0876 N.ar    1  UNL1       -0.1258
     13 N          62.3291   89.5925   15.5611 N.ar    1  UNL1       -0.0406
     14 N          63.5187   90.2553   16.1900 N.ar    1  UNL1       -0.1095
     15 C          64.2938   90.9424   15.1051 C.ar    1  UNL1        0.1838
     16 N          65.5549   91.7542   15.1325 N.ar    1  UNL1       -0.3249
     17 H          67.7278   93.5161   13.0532 H       1  UNL1        0.1437
     18 H          67.8328   93.2959   14.7409 H       1  UNL1        0.1437
     19 H          66.0212   91.9105   15.9853 H       1  UNL1        0.1686
     20 C          61.1426   86.3182   10.6125 C.3     1  UNL1        0.1539
     21 C          62.2263   85.3469   10.9757 C.ar    1  UNL1        0.0051
     22 C          62.8978   84.5376    9.9059 C.ar    1  UNL1       -0.0021
     23 C          63.9815   83.5663   10.2692 C.ar    1  UNL1        0.0029
     24 C          64.3938   83.4042   11.7023 C.ar    1  UNL1        0.0369
     25 C          63.7224   84.2134   12.7720 C.ar    1  UNL1        0.1382
     26 C          62.6387   85.1847   12.4088 C.ar    1  UNL1        0.0346
     27 O          64.1348   84.0512   14.2052 O.3     1  UNL1       -0.4777
     28 C          63.6364   85.0131   15.2425 C.3     1  UNL1        0.1829
     29 C          62.5525   84.7458   16.2445 C.3     1  UNL1        0.0620
     30 C          62.3805   85.9787   17.0813 C.3     1  UNL1        0.0724
     31 N          63.3580   87.0081   16.5965 N.3     1  UNL1       -0.2944
     32 C          64.1341   86.4113   15.4601 C.3     1  UNL1        0.1127
     33 H          63.9931   87.2653   17.3521 H       1  UNL1        0.1234
@<TRIPOS>BOND
     1     7     8    1
     2     8     9   ar
     3     9    10   ar
     4    10     6    1
     5     6     1    1
     6     1     2   ar
     7     2     3   ar
     8     3     4   ar
     9     4    20    1
    10    20    21    1
    11    21    22   ar
    12    22    23   ar
    13    23    24   ar
    14    24    25   ar
    15    25    27    1
    16    28    27    1
    17    28    29    1
    18    29    30    1
    19    30    31    1
    20    31    32    1
    21    25    26   ar
    22     4     5   ar
    23    10    11   ar
    24    11    12   ar
    25    12    13   ar
    26    13    14   ar
    27    14    15   ar
    28    15    16   ar
    29    16     8   ar
    30     5     1   ar
    31    15    11    1
    32    26    21   ar
    33    32    28    1
    34     7    17    1
    35     7    18    1
    36    31    33    1
    37    16    19    1
@<TRIPOS>MOLECULE
*****
 33 37 0 0 0
SMALL
GASTEIGER

@<TRIPOS>ATOM
      1 C          62.3502   85.8446   10.9864 C.ar    1  UNL1        0.0846
      2 C          61.1886   85.9804   10.0471 C.ar    1  UNL1        0.0370
      3 C          60.7030   87.3981   10.1125 C.ar    1  UNL1        0.0967
      4 N          61.5644   88.1385   11.0921 N.ar    1  UNL1       -0.2452
      5 N          62.5825   87.1783   11.6323 N.ar    1  UNL1       -0.1730
      6 C          63.1407   84.5945   11.2361 C.3     1  UNL1        0.0757
      7 N          61.8573   80.0497   13.4036 N.pl3   1  UNL1       -0.3441
      8 C          62.2298   81.4961   13.5426 C.ar    1  UNL1        0.1035
      9 C          62.4990   82.3221   12.3199 C.ar    1  UNL1        0.0297
     10 C          62.8715   83.7685   12.4589 C.ar    1  UNL1        0.0090
     11 C          62.9746   84.3888   13.8208 C.ar    1  UNL1        0.1366
     12 N          63.3190   85.7789   14.2670 N.ar    1  UNL1       -0.1258
     13 N          63.2625   85.8119   15.7656 N.ar    1  UNL1       -0.0406
     14 N          62.8833   84.4423   16.2455 N.ar    1  UNL1       -0.1095
     15 C          62.7053   83.5627   15.0435 C.ar    1  UNL1        0.1838
     16 N          62.3329   82.1164   14.9044 N.ar    1  UNL1       -0.3249
     17 H          61.7896   79.6425   12.5098 H       1  UNL1        0.1437
     18 H          61.6806   79.5076   14.2062 H       1  UNL1        0.1437
     19 H          62.1562   81.5742   15.7070 H       1  UNL1        0.1686
     20 C          61.4313   89.5851   11.4660 C.3     1  UNL1        0.1539
     21 C          62.6585   90.4189   11.6859 C.ar    1  UNL1        0.0051
     22 C          63.2248   91.2317   10.5595 C.ar    1  UNL1       -0.0021
     23 C          64.4521   92.0656   10.7794 C.ar    1  UNL1        0.0029
     24 C          65.1131   92.0867   12.1258 C.ar    1  UNL1        0.0369
     25 C          64.5468   91.2740   13.2522 C.ar    1  UNL1        0.1382
     26 C          63.3196   90.4402   13.0322 C.ar    1  UNL1        0.0346
     27 O          65.2079   91.2952   14.5985 O.3     1  UNL1       -0.4777
     28 C          66.5750   91.8925   14.7535 C.3     1  UNL1        0.1829
     29 C          67.0043   92.8447   15.8302 C.3     1  UNL1        0.0620
     30 C          68.4476   93.1832   15.6011 C.3     1  UNL1        0.0724
     31 N          68.9103   92.4402   14.3829 N.3     1  UNL1       -0.2944
     32 C          67.7530   91.6426   13.8590 C.3     1  UNL1        0.1127
     33 H          69.6780   91.8155   14.6292 H       1  UNL1        0.1234
@<TRIPOS>BOND
     1     7     8    1
     2     8     9   ar
     3     9    10   ar
     4    10     6    1
     5     6     1    1
     6     1     2   ar
     7     2     3   ar
     8     3     4   ar
     9     4    20    1
    10    20    21    1
    11    21    22   ar
    12    22    23   ar
    13    23    24   ar
    14    24    25   ar
    15    25    27    1
    16    28    27    1
    17    28    29    1
    18    29    30    1
    19    30    31    1
    20    31    32    1
    21    25    26   ar
    22     4     5   ar
    23    10    11   ar
    24    11    12   ar
    25    12    13   ar
    26    13    14   ar
    27    14    15   ar
    28    15    16   ar
    29    16     8   ar
    30     5     1   ar
    31    15    11    1
    32    26    21   ar
    33    32    28    1
    34     7    17    1
    35     7    18    1
    36    31    33    1
    37    16    19    1
@<TRIPOS>MOLECULE
*****
 33 37 0 0 0
SMALL
GASTEIGER

@<TRIPOS>ATOM
      1 C          62.9262   89.8952   12.0200 C.ar    1  UNL1        0.0846
      2 C          62.3463   90.5223   10.7870 C.ar    1  UNL1        0.0370
      3 C          61.7612   89.4294    9.9425 C.ar    1  UNL1        0.0967
      4 N          61.9794   88.1268   10.6536 N.ar    1  UNL1       -0.2452
      5 N          62.6995   88.4147   11.9376 N.ar    1  UNL1       -0.1730
      6 C          63.6124   90.6210   13.1391 C.3     1  UNL1        0.0757
      7 N          66.1192   93.6147    9.7105 N.pl3   1  UNL1       -0.3441
      8 C          65.9174   93.1431   11.1202 C.ar    1  UNL1        0.1035
      9 C          64.8658   92.1179   11.4248 C.ar    1  UNL1        0.0297
     10 C          64.6640   91.6464   12.8345 C.ar    1  UNL1        0.0090
     11 C          65.5139   92.2002   13.9394 C.ar    1  UNL1        0.1366
     12 N          65.5448   91.9286   15.4143 N.ar    1  UNL1       -0.1258
     13 N          66.6155   92.7861   16.0211 N.ar    1  UNL1       -0.0406
     14 N          67.2464   93.5876   14.9214 N.ar    1  UNL1       -0.1095
     15 C          66.5655   93.2255   13.6347 C.ar    1  UNL1        0.1838
     16 N          66.7673   93.6970   12.2251 N.ar    1  UNL1       -0.3249
     17 H          65.5614   93.2512    8.9853 H       1  UNL1        0.1437
     18 H          66.8094   94.2876    9.5106 H       1  UNL1        0.1437
     19 H          67.4575   94.3700   12.0252 H       1  UNL1        0.1686
     20 C          61.5526   86.7739   10.1663 C.3     1  UNL1        0.1539
     21 C          62.4013   85.5710   10.4538 C.ar    1  UNL1        0.0051
     22 C          63.1198   84.8755    9.3357 C.ar    1  UNL1       -0.0021
     23 C          63.9686   83.6726    9.6232 C.ar    1  UNL1        0.0029
     24 C          64.0988   83.1652   11.0288 C.ar    1  UNL1        0.0369
     25 C          63.3803   83.8607   12.1468 C.ar    1  UNL1        0.1382
     26 C          62.5316   85.0636   11.8593 C.ar    1  UNL1        0.0346
     27 O          63.5106   83.3533   13.5524 O.3     1  UNL1       -0.4777
     28 C          63.2794   84.2801   14.7088 C.3     1  UNL1        0.1829
     29 C          64.2127   85.3579   15.1752 C.3     1  UNL1        0.0620
     30 C          63.5845   86.0358   16.3566 C.3     1  UNL1        0.0724
     31 N          62.2629   85.3771   16.6204 N.3     1  UNL1       -0.2944
     32 C          62.0744   84.2920   15.6020 C.3     1  UNL1        0.1127
     33 H          61.5120   86.0626   16.5389 H       1  UNL1        0.1234
@<TRIPOS>BOND
     1     7     8    1
     2     8     9   ar
     3     9    10   ar
     4    10     6    1
     5     6     1    1
     6     1     2   ar
     7     2     3   ar
     8     3     4   ar
     9     4    20    1
    10    20    21    1
    11    21    22   ar
    12    22    23   ar
    13    23    24   ar
    14    24    25   ar
    15    25    27    1
    16    28    27    1
    17    28    29    1
    18    29    30    1
    19    30    31    1
    20    31    32    1
    21    25    26   ar
    22     4     5   ar
    23    10    11   ar
    24    11    12   ar
    25    12    13   ar
    26    13    14   ar
    27    14    15   ar
    28    15    16   ar
    29    16     8   ar
    30     5     1   ar
    31    15    11    1
    32    26    21   ar
    33    32    28    1
    34     7    17    1
    35     7    18    1
    36    31    33    1
    37    16    19    1
@<TRIPOS>MOLECULE
*****
 33 37 0 0 0
SMALL
GASTEIGER

@<TRIPOS>ATOM
      1 C          62.9978   90.0401   12.4809 C.ar    1  UNL1        0.0846
      2 C          62.2582   90.7716   11.4002 C.ar    1  UNL1        0.0370
      3 C          61.4556   89.7678   10.6268 C.ar    1  UNL1        0.0967
      4 N          61.6990   88.4160   11.2295 N.ar    1  UNL1       -0.2452
      5 N          62.6522   88.5843   12.3754 N.ar    1  UNL1       -0.1730
      6 C          63.9209   90.6562   13.4900 C.3     1  UNL1        0.0757
      7 N          65.9341   93.6998    9.7907 N.pl3   1  UNL1       -0.3441
      8 C          65.9028   93.2360   11.2169 C.ar    1  UNL1        0.1035
      9 C          64.9276   92.1780   11.6403 C.ar    1  UNL1        0.0297
     10 C          64.8963   91.7143   13.0666 C.ar    1  UNL1        0.0090
     11 C          65.8403   92.3087   14.0693 C.ar    1  UNL1        0.1366
     12 N          66.0401   92.0534   15.5338 N.ar    1  UNL1       -0.1258
     13 N          67.1389   92.9538   16.0155 N.ar    1  UNL1       -0.0406
     14 N          67.6182   93.7654   14.8487 N.ar    1  UNL1       -0.1095
     15 C          66.8156   93.3667   13.6458 C.ar    1  UNL1        0.1838
     16 N          66.8469   93.8304   12.2196 N.ar    1  UNL1       -0.3249
     17 H          65.3145   93.3097    9.1325 H       1  UNL1        0.1437
     18 H          66.5743   94.3942    9.5128 H       1  UNL1        0.1437
     19 H          67.4870   94.5248   11.9417 H       1  UNL1        0.1686
     20 C          61.0953   87.1229   10.7674 C.3     1  UNL1        0.1539
     21 C          61.9787   86.0210   10.2622 C.ar    1  UNL1        0.0051
     22 C          62.2704   85.9064    8.7952 C.ar    1  UNL1       -0.0021
     23 C          63.1539   84.8044    8.2901 C.ar    1  UNL1        0.0029
     24 C          63.7456   83.8170    9.2518 C.ar    1  UNL1        0.0369
     25 C          63.4540   83.9316   10.7187 C.ar    1  UNL1        0.1382
     26 C          62.5706   85.0335   11.2238 C.ar    1  UNL1        0.0346
     27 O          64.0458   82.9442   11.6804 O.3     1  UNL1       -0.4777
     28 C          63.2392   82.4586   12.8480 C.3     1  UNL1        0.1829
     29 C          62.1590   81.4188   12.8021 C.3     1  UNL1        0.0620
     30 C          61.6234   81.2451   14.1924 C.3     1  UNL1        0.0724
     31 N          62.3725   82.1776   15.0976 N.3     1  UNL1       -0.2944
     32 C          63.3711   82.9275   14.2668 C.3     1  UNL1        0.1127
     33 H          62.8549   81.6444   15.8211 H       1  UNL1        0.1234
@<TRIPOS>BOND
     1     7     8    1
     2     8     9   ar
     3     9    10   ar
     4    10     6    1
     5     6     1    1
     6     1     2   ar
     7     2     3   ar
     8     3     4   ar
     9     4    20    1
    10    20    21    1
    11    21    22   ar
    12    22    23   ar
    13    23    24   ar
    14    24    25   ar
    15    25    27    1
    16    28    27    1
    17    28    29    1
    18    29    30    1
    19    30    31    1
    20    31    32    1
    21    25    26   ar
    22     4     5   ar
    23    10    11   ar
    24    11    12   ar
    25    12    13   ar
    26    13    14   ar
    27    14    15   ar
    28    15    16   ar
    29    16     8   ar
    30     5     1   ar
    31    15    11    1
    32    26    21   ar
    33    32    28    1
    34     7    17    1
    35     7    18    1
    36    31    33    1
    37    16    19    1
@<TRIPOS>MOLECULE
*****
 33 37 0 0 0
SMALL
GASTEIGER

@<TRIPOS>ATOM
      1 C          62.4468   85.9295   10.8494 C.ar    1  UNL1        0.0846
      2 C          62.1725   86.5677    9.5200 C.ar    1  UNL1        0.0370
      3 C          62.0007   88.0414    9.7399 C.ar    1  UNL1        0.0967
      4 N          62.1688   88.3142   11.2052 N.ar    1  UNL1       -0.2452
      5 N          62.4444   87.0089   11.8910 N.ar    1  UNL1       -0.1730
      6 C          62.6820   84.4685   11.0944 C.3     1  UNL1        0.0757
      7 N          64.4925   85.4617   15.8627 N.pl3   1  UNL1       -0.3441
      8 C          63.9760   84.4870   14.8461 C.ar    1  UNL1        0.1035
      9 C          63.5872   84.9651   13.4786 C.ar    1  UNL1        0.0297
     10 C          63.0708   83.9904   12.4620 C.ar    1  UNL1        0.0090
     11 C          62.9430   82.5377   12.8132 C.ar    1  UNL1        0.1366
     12 N          62.4692   81.3526   12.0252 N.ar    1  UNL1       -0.1258
     13 N          62.5651   80.1421   12.9058 N.ar    1  UNL1       -0.0406
     14 N          63.0982   80.5791   14.2380 N.ar    1  UNL1       -0.1095
     15 C          63.3318   82.0596   14.1808 C.ar    1  UNL1        0.1838
     16 N          63.8483   83.0343   15.1973 N.ar    1  UNL1       -0.3249
     17 H          64.5763   86.4152   15.6323 H       1  UNL1        0.1437
     18 H          64.7476   85.1479   16.7603 H       1  UNL1        0.1437
     19 H          64.1034   82.7206   16.0949 H       1  UNL1        0.1686
     20 C          62.0772   89.6565   11.8685 C.3     1  UNL1        0.1539
     21 C          63.2827   90.2455   12.5392 C.ar    1  UNL1        0.0051
     22 C          63.8262   89.6196   13.7894 C.ar    1  UNL1       -0.0021
     23 C          65.0317   90.2086   14.4601 C.ar    1  UNL1        0.0029
     24 C          65.6937   91.4235   13.8806 C.ar    1  UNL1        0.0369
     25 C          65.1502   92.0493   12.6304 C.ar    1  UNL1        0.1382
     26 C          63.9448   91.4603   11.9598 C.ar    1  UNL1        0.0346
     27 O          65.8124   93.2642   12.0509 O.3     1  UNL1       -0.4777
     28 C          66.7474   93.1252   10.8864 C.3     1  UNL1        0.1829
     29 C          67.8255   92.0926   10.7397 C.3     1  UNL1        0.0620
     30 C          68.5130   92.3236    9.4267 C.3     1  UNL1        0.0724
     31 N          67.8599   93.4989    8.7619 N.3     1  UNL1       -0.2944
     32 C          66.7687   93.9944    9.6640 C.3     1  UNL1        0.1127
     33 H          67.4653   93.2144    7.8654 H       1  UNL1        0.1234
@<TRIPOS>BOND
     1     7     8    1
     2     8     9   ar
     3     9    10   ar
     4    10     6    1
     5     6     1    1
     6     1     2   ar
     7     2     3   ar
     8     3     4   ar
     9     4    20    1
    10    20    21    1
    11    21    22   ar
    12    22    23   ar
    13    23    24   ar
    14    24    25   ar
    15    25    27    1
    16    28    27    1
    17    28    29    1
    18    29    30    1
    19    30    31    1
    20    31    32    1
    21    25    26   ar
    22     4     5   ar
    23    10    11   ar
    24    11    12   ar
    25    12    13   ar
    26    13    14   ar
    27    14    15   ar
    28    15    16   ar
    29    16     8   ar
    30     5     1   ar
    31    15    11    1
    32    26    21   ar
    33    32    28    1
    34     7    17    1
    35     7    18    1
    36    31    33    1
    37    16    19    1
@<TRIPOS>MOLECULE
*****
 33 37 0 0 0
SMALL
GASTEIGER

@<TRIPOS>ATOM
      1 C          63.8638   89.3463   15.4407 C.ar    1  UNL1        0.0846
      2 C          63.1534   88.7271   16.6077 C.ar    1  UNL1        0.0370
      3 C          63.3169   87.2391   16.5135 C.ar    1  UNL1        0.0967
      4 N          64.1284   86.9385   15.2883 N.ar    1  UNL1       -0.2452
      5 N          64.4664   88.2408   14.6252 N.ar    1  UNL1       -0.1730
      6 C          63.9556   90.8132   15.1416 C.3     1  UNL1        0.0757
      7 N          68.8978   92.3400   14.6464 N.pl3   1  UNL1       -0.3441
      8 C          67.5456   92.0999   14.0430 C.ar    1  UNL1        0.1035
      9 C          66.4267   91.5766   14.8939 C.ar    1  UNL1        0.0297
     10 C          65.0745   91.3366   14.2905 C.ar    1  UNL1        0.0090
     11 C          64.8413   91.6199   12.8361 C.ar    1  UNL1        0.1366
     12 N          63.6250   91.4820   11.9691 N.ar    1  UNL1       -0.1258
     13 N          63.9923   91.9201   10.5824 N.ar    1  UNL1       -0.0406
     14 N          65.4355   92.3288   10.5922 N.ar    1  UNL1       -0.1095
     15 C          65.9602   92.1433   11.9851 C.ar    1  UNL1        0.1838
     16 N          67.3124   92.3833   12.5886 N.ar    1  UNL1       -0.3249
     17 H          69.0509   92.1540   15.6010 H       1  UNL1        0.1437
     18 H          69.6321   92.6835   14.0878 H       1  UNL1        0.1437
     19 H          68.0467   92.7268   12.0301 H       1  UNL1        0.1686
     20 C          64.5311   85.5750   14.8100 C.3     1  UNL1        0.1539
     21 C          63.9788   85.0382   13.5229 C.ar    1  UNL1        0.0051
     22 C          64.5626   83.7967   12.9161 C.ar    1  UNL1       -0.0021
     23 C          64.0102   83.2599   11.6290 C.ar    1  UNL1        0.0029
     24 C          62.8741   83.9644   10.9487 C.ar    1  UNL1        0.0369
     25 C          62.2903   85.2058   11.5555 C.ar    1  UNL1        0.1382
     26 C          62.8427   85.7426   12.8425 C.ar    1  UNL1        0.0346
     27 O          61.1541   85.9103   10.8751 O.3     1  UNL1       -0.4777
     28 C          61.1588   87.4060   10.7626 C.3     1  UNL1        0.1829
     29 C          60.0706   88.3285   11.2262 C.3     1  UNL1        0.0620
     30 C          60.4917   89.7345   10.9168 C.3     1  UNL1        0.0724
     31 N          61.8402   89.6811   10.2620 N.3     1  UNL1       -0.2944
     32 C          62.2524   88.2420   10.1666 C.3     1  UNL1        0.1127
     33 H          62.5176   90.1989   10.8218 H       1  UNL1        0.1234
@<TRIPOS>BOND
     1     7     8    1
     2     8     9   ar
     3     9    10   ar
     4    10     6    1
     5     6     1    1
     6     1     2   ar
     7     2     3   ar
     8     3     4   ar
     9     4    20    1
    10    20    21    1
    11    21    22   ar
    12    22    23   ar
    13    23    24   ar
    14    24    25   ar
    15    25    27    1
    16    28    27    1
    17    28    29    1
    18    29    30    1
    19    30    31    1
    20    31    32    1
    21    25    26   ar
    22     4     5   ar
    23    10    11   ar
    24    11    12   ar
    25    12    13   ar
    26    13    14   ar
    27    14    15   ar
    28    15    16   ar
    29    16     8   ar
    30     5     1   ar
    31    15    11    1
    32    26    21   ar
    33    32    28    1
    34     7    17    1
    35     7    18    1
    36    31    33    1
    37    16    19    1
@<TRIPOS>MOLECULE
*****
 33 37 0 0 0
SMALL
GASTEIGER

@<TRIPOS>ATOM
      1 C          63.4476   88.4191   16.1399 C.ar    1  UNL1        0.0846
      2 C          62.7792   87.6404   17.2339 C.ar    1  UNL1        0.0370
      3 C          63.1095   86.1903   17.0390 C.ar    1  UNL1        0.0967
      4 N          63.9819   86.0727   15.8246 N.ar    1  UNL1       -0.2452
      5 N          64.1909   87.4502   15.2688 N.ar    1  UNL1       -0.1730
      6 C          63.3839   89.9056   15.9501 C.3     1  UNL1        0.0757
      7 N          67.1308   92.6628   13.6350 N.pl3   1  UNL1       -0.3441
      8 C          65.8367   91.9082   13.5577 C.ar    1  UNL1        0.1035
      9 C          65.2574   91.2843   14.7925 C.ar    1  UNL1        0.0297
     10 C          63.9633   90.5296   14.7152 C.ar    1  UNL1        0.0090
     11 C          63.2486   90.3991   13.4029 C.ar    1  UNL1        0.1366
     12 N          61.9665   89.7202   13.0215 N.ar    1  UNL1       -0.1258
     13 N          61.7535   89.9246   11.5508 N.ar    1  UNL1       -0.0406
     14 N          62.9039   90.7298   11.0233 N.ar    1  UNL1       -0.1095
     15 C          63.8279   91.0231   12.1680 C.ar    1  UNL1        0.1838
     16 N          65.1220   91.7776   12.2454 N.ar    1  UNL1       -0.3249
     17 H          67.5999   92.7486   14.4963 H       1  UNL1        0.1437
     18 H          67.5110   93.0724   12.8245 H       1  UNL1        0.1437
     19 H          65.5022   92.1872   11.4349 H       1  UNL1        0.1686
     20 C          64.5463   84.8009   15.2641 C.3     1  UNL1        0.1539
     21 C          63.8251   84.0813   14.1632 C.ar    1  UNL1        0.0051
     22 C          63.1763   82.7559   14.4326 C.ar    1  UNL1       -0.0021
     23 C          62.4551   82.0364   13.3317 C.ar    1  UNL1        0.0029
     24 C          62.3827   82.6421   11.9614 C.ar    1  UNL1        0.0369
     25 C          63.0315   83.9674   11.6920 C.ar    1  UNL1        0.1382
     26 C          63.7527   84.6870   12.7929 C.ar    1  UNL1        0.0346
     27 O          62.9591   84.5732   10.3216 O.3     1  UNL1       -0.4777
     28 C          61.9936   85.6869   10.0439 C.3     1  UNL1        0.1829
     29 C          61.6868   86.2728    8.6975 C.3     1  UNL1        0.0620
     30 C          60.6689   87.3584    8.8854 C.3     1  UNL1        0.0724
     31 N          60.3465   87.4435   10.3479 N.3     1  UNL1       -0.2944
     32 C          61.1652   86.4105   11.0639 C.3     1  UNL1        0.1127
     33 H          59.3537   87.2611   10.4947 H       1  UNL1        0.1234
@<TRIPOS>BOND
     1     7     8    1
     2     8     9   ar
     3     9    10   ar
     4    10     6    1
     5     6     1    1
     6     1     2   ar
     7     2     3   ar
     8     3     4   ar
     9     4    20    1
    10    20    21    1
    11    21    22   ar
    12    22    23   ar
    13    23    24   ar
    14    24    25   ar
    15    25    27    1
    16    28    27    1
    17    28    29    1
    18    29    30    1
    19    30    31    1
    20    31    32    1
    21    25    26   ar
    22     4     5   ar
    23    10    11   ar
    24    11    12   ar
    25    12    13   ar
    26    13    14   ar
    27    14    15   ar
    28    15    16   ar
    29    16     8   ar
    30     5     1   ar
    31    15    11    1
    32    26    21   ar
    33    32    28    1
    34     7    17    1
    35     7    18    1
    36    31    33    1
    37    16    19    1
