@<TRIPOS>MOLECULE
*****
 60 67 0 0 0
SMALL
GASTEIGER

@<TRIPOS>ATOM
      1 N          65.4018   89.2273   14.5481 N.3     1  UNL1       -0.1862
      2 C          65.5996   87.9732   15.3469 C.3     1  UNL1        0.1775
      3 C          64.8299   86.7335   14.9995 C.2     1  UNL1        0.2452
      4 O          65.0278   85.4794   15.7984 O.2     1  UNL1       -0.2732
      5 N          63.8624   86.7478   13.8534 N.am    1  UNL1       -0.2541
      6 C          63.0928   85.5081   13.5060 C.3     1  UNL1        0.1577
      7 C          62.1253   85.5224   12.3599 C.2     1  UNL1        0.2445
      8 O          61.3556   84.2827   12.0125 O.2     1  UNL1       -0.2731
      9 N          61.9274   86.7765   11.5610 N.am    1  UNL1       -0.2705
     10 C          62.6971   88.0163   11.9084 C.3     1  UNL1        0.1359
     11 C          63.6646   88.0019   13.0546 C.3     1  UNL1        0.1908
     12 N          64.4342   89.2417   13.4020 N.am    1  UNL1       -0.1863
     13 C          64.2364   90.4958   12.6031 C.2     1  UNL1        0.3191
     14 O          63.2689   90.5101   11.4570 O.2     1  UNL1       -0.2512
     15 N          65.0060   91.7355   12.9505 N.am    1  UNL1       -0.2836
     16 H          65.6410   91.7261   13.7028 H       1  UNL1        0.1513
     17 C          66.1714   90.4671   14.8955 C.3     1  UNL1        0.1188
     18 C          66.3190   92.7512   16.1246 C.2     1  UNL1       -0.0034
     19 C          65.5269   91.5448   15.7158 C.2     1  UNL1       -0.0071
     20 C          63.2906   84.2540   14.3048 C.3     1  UNL1        0.0556
     21 C          63.1064   82.9144   13.6556 C.ar    1  UNL1       -0.0198
     22 C          63.9130   82.5506   12.4444 C.ar    1  UNL1       -0.0011
     23 C          63.7288   81.2110   11.7952 C.ar    1  UNL1        0.0363
     24 C          62.7379   80.2351   12.3572 C.ar    1  UNL1        0.1337
     25 O          62.5537   78.8955   11.7080 O.3     1  UNL1       -0.5055
     26 C          61.9312   80.5989   13.5685 C.ar    1  UNL1        0.0363
     27 C          62.1155   81.9385   14.2177 C.ar    1  UNL1       -0.0011
     28 H          63.0576   78.6682   10.9514 H       1  UNL1        0.2922
     29 C          60.9599   86.7909   10.4149 C.3     1  UNL1        0.1217
     30 C          60.4390   88.0957    9.8893 C.ar    1  UNL1        0.0135
     31 C          60.2505   89.2573   10.8195 C.ar    1  UNL1       -0.0012
     32 C          59.7297   90.5621   10.2940 C.ar    1  UNL1       -0.0002
     33 C          59.3973   90.7053    8.8384 C.ar    1  UNL1        0.0016
     34 C          59.5857   89.5437    7.9082 C.ar    1  UNL1        0.0214
     35 C          59.3457   89.3877    6.4358 C.ar    1  UNL1        0.0721
     36 C          59.7183   87.9865    6.0513 C.ar    1  UNL1        0.0805
     37 N          60.1885   87.2766    7.2860 N.ar    1  UNL1       -0.3241
     38 C          60.6582   85.8539    7.3602 C.3     1  UNL1        0.1305
     39 C          60.1066   88.2389    8.4337 C.ar    1  UNL1        0.0577
     40 C          58.8247   90.4471    5.5103 C.2     1  UNL1        0.2506
     41 O          57.3637   90.7869    5.5062 O.2     1  UNL1       -0.2699
     42 N          59.7646   91.1665    4.5889 N.am    1  UNL1       -0.2732
     43 C          61.2256   90.8266    4.5930 C.3     1  UNL1        0.1110
     44 C          62.1655   91.5460    3.6716 C.3     1  UNL1        0.0940
     45 N          61.6445   92.6054    2.7461 N.3     1  UNL1       -0.2681
     46 C          62.5844   93.3248    1.8248 C.3     1  UNL1        0.0940
     47 C          62.0634   94.3840    0.8993 C.3     1  UNL1        0.1112
     48 N          60.6024   94.7239    0.8953 N.am    1  UNL1       -0.2695
     49 C          60.0814   95.7831   -0.0302 C.2     1  UNL1        0.3030
     50 O          58.6204   96.1230   -0.0342 O.2     1  UNL1       -0.2649
     51 C          59.6625   94.0044    1.8167 C.3     1  UNL1        0.1115
     52 C          60.1835   92.9452    2.7421 C.3     1  UNL1        0.0975
     53 C          59.2436   92.2257    3.6635 C.3     1  UNL1        0.1114
     54 C          64.8082   92.9896   12.1517 C.3     1  UNL1        0.1177
     55 C          65.8507   93.4218   11.1636 C.ar    1  UNL1       -0.0025
     56 C          66.8166   92.4190   10.6055 C.ar    1  UNL1       -0.0026
     57 C          67.8591   92.8512    9.6175 C.ar    1  UNL1       -0.0003
     58 C          67.9358   94.2862    9.1875 C.ar    1  UNL1       -0.0000
     59 C          66.9699   95.2891    9.7455 C.ar    1  UNL1       -0.0003
     60 C          65.9273   94.8569   10.7336 C.ar    1  UNL1       -0.0026
@<TRIPOS>BOND
     1    18    19    2
     2    19    17    1
     3    17     1    1
     4     1     2    1
     5     2     3    1
     6     3     4    2
     7     3     5   am
     8     5     6    1
     9     6    20    1
    10    20    21    1
    11    21    22   ar
    12    22    23   ar
    13    23    24   ar
    14    24    25    1
    15    24    26   ar
    16    26    27   ar
    17     6     7    1
    18     7     8    2
    19     7     9   am
    20     9    29    1
    21    29    30    1
    22    30    31   ar
    23    31    32   ar
    24    32    33   ar
    25    33    34   ar
    26    34    35   ar
    27    35    40    1
    28    40    41    2
    29    40    42   am
    30    42    43    1
    31    43    44    1
    32    44    45    1
    33    45    46    1
    34    46    47    1
    35    47    48    1
    36    48    49   am
    37    49    50    2
    38    48    51    1
    39    51    52    1
    40    52    53    1
    41    35    36   ar
    42    36    37   ar
    43    37    38    1
    44    37    39   ar
    45     9    10    1
    46    11    10    1
    47    11    12    1
    48    12    13   am
    49    13    14    2
    50    13    15   am
    51    15    54    1
    52    54    55    1
    53    55    56   ar
    54    56    57   ar
    55    57    58   ar
    56    58    59   ar
    57    59    60   ar
    58    12     1    1
    59    60    55   ar
    60    11     5    1
    61    27    21   ar
    62    39    30   ar
    63    39    34   ar
    64    53    42    1
    65    52    45    1
    66    25    28    1
    67    15    16    1
