@<TRIPOS>MOLECULE
*****
 29 31 0 0 0
SMALL
GASTEIGER

@<TRIPOS>ATOM
      1 C          62.2223   88.8675   11.4884 C.3     1  UNL1        0.1533
      2 C          61.5041   89.5621   10.3697 C.3     1  UNL1        0.0293
      3 C          60.9167   88.7624    9.2448 C.3     1  UNL1        0.0040
      4 C          61.0474   87.2681    9.2387 C.3     1  UNL1        0.0216
      5 C          61.7657   86.5735   10.3575 C.3     1  UNL1        0.0954
      6 N          62.3531   87.3732   11.4824 N.am    1  UNL1       -0.2573
      7 C          63.0714   86.6787   12.6012 C.2     1  UNL1        0.3076
      8 O          63.6588   87.4784   13.7261 O.2     1  UNL1       -0.2523
      9 N          63.2021   85.1844   12.5952 N.am    1  UNL1       -0.2604
     10 C          62.6147   84.3847   11.4702 C.3     1  UNL1        0.1203
     11 C          62.7454   82.8904   11.4642 C.3     1  UNL1        0.1723
     12 S          63.4637   82.1959   12.5830 S.O2    1  UNL1       -0.0066
     13 O          64.0484   81.0902   13.4110 O.2     1  UNL1       -0.1729
     14 O          63.0793   81.0121   11.7457 O.2     1  UNL1       -0.1729
     15 C          64.0511   82.9956   13.7079 C.3     1  UNL1        0.1723
     16 C          63.9203   84.4899   13.7139 C.3     1  UNL1        0.1203
     17 N          64.1676   90.2868   12.4639 N.am    1  UNL1       -0.2654
     18 C          62.8098   89.6672   12.6134 C.2     1  UNL1        0.2454
     19 O          62.0394   89.8473   13.8877 O.2     1  UNL1       -0.2730
     20 H          64.6732   90.1687   11.6274 H       1  UNL1        0.1564
     21 C          66.2790   92.4331   14.9137 C.ar    1  UNL1        0.1549
     22 C          66.1032   91.7442   13.5928 C.ar    1  UNL1        0.0733
     23 C          64.7551   91.0866   13.5888 C.ar    1  UNL1        0.1760
     24 N          64.0976   91.3690   14.9071 N.ar    1  UNL1       -0.0621
     25 O          65.0394   92.2012   15.7259 O.2     1  UNL1       -0.3565
     26 C          67.8297   92.1394   16.3310 C.3     1  UNL1        0.0076
     27 C          67.4828   93.2164   15.3463 C.3     1  UNL1        0.0539
     28 C          67.1359   94.2934   14.3616 C.3     1  UNL1        0.0076
     29 C          68.6867   93.9997   15.7789 C.3     1  UNL1        0.0076
@<TRIPOS>BOND
     1    26    27    1
     2    27    28    1
     3    27    29    1
     4    27    21    1
     5    21    22   ar
     6    22    23   ar
     7    23    17    1
     8    17    18   am
     9    18    19    2
    10     1    18    1
    11     1     2    1
    12     2     3    1
    13     3     4    1
    14     4     5    1
    15     5     6    1
    16     6     7   am
    17     7     8    2
    18     7     9   am
    19     9    10    1
    20    10    11    1
    21    11    12    1
    22    12    13    2
    23    12    14    2
    24    12    15    1
    25    15    16    1
    26    23    24   ar
    27    24    25   ar
    28    25    21   ar
    29     6     1    1
    30    16     9    1
    31    17    20    1
@<TRIPOS>MOLECULE
*****
 29 31 0 0 0
SMALL
GASTEIGER

@<TRIPOS>ATOM
      1 C          61.4003   88.6103   10.0126 C.3     1  UNL1        0.1533
      2 C          60.5037   88.8973    8.8448 C.3     1  UNL1        0.0293
      3 C          59.8567   87.7671    8.1005 C.3     1  UNL1        0.0040
      4 C          60.1063   86.3500    8.5240 C.3     1  UNL1        0.0216
      5 C          61.0028   86.0630    9.6918 C.3     1  UNL1        0.0954
      6 N          61.6498   87.1931   10.4361 N.am    1  UNL1       -0.2573
      7 C          62.5464   86.9062   11.6040 C.2     1  UNL1        0.3076
      8 O          63.1934   88.0363   12.3483 O.2     1  UNL1       -0.2523
      9 N          62.7959   85.4890   12.0275 N.am    1  UNL1       -0.2604
     10 C          62.1489   84.3588   11.2831 C.3     1  UNL1        0.1203
     11 C          62.3984   82.9416   11.7066 C.3     1  UNL1        0.1723
     12 S          63.2950   82.6546   12.8744 S.O2    1  UNL1       -0.0066
     13 O          64.0590   81.8819   13.9085 O.2     1  UNL1       -0.1729
     14 O          62.9133   81.2561   12.4892 O.2     1  UNL1       -0.1729
     15 C          63.9420   83.7848   13.6187 C.3     1  UNL1        0.1723
     16 C          63.6925   85.2020   13.1953 C.3     1  UNL1        0.1203
     17 N          63.4699   90.1147   10.4636 N.am    1  UNL1       -0.2654
     18 C          62.0473   89.7405   10.7570 C.2     1  UNL1        0.2454
     19 O          61.2717   90.4965   11.7948 O.2     1  UNL1       -0.2730
     20 H          63.9790   89.6186    9.7824 H       1  UNL1        0.1564
     21 C          65.2636   93.3260   11.7031 C.ar    1  UNL1        0.1549
     22 C          64.7415   92.4624   10.5932 C.ar    1  UNL1        0.0733
     23 C          64.1170   91.2450   11.2080 C.ar    1  UNL1        0.1760
     24 N          64.2531   91.3561   12.6976 N.ar    1  UNL1       -0.0621
     25 O          64.9617   92.6423   13.0036 O.2     1  UNL1       -0.3565
     26 C          65.4508   94.7425   10.1351 C.3     1  UNL1        0.0076
     27 C          65.9645   94.6422   11.5408 C.3     1  UNL1        0.0539
     28 C          66.4783   94.5419   12.9465 C.3     1  UNL1        0.0076
     29 C          66.6654   95.9584   11.3785 C.3     1  UNL1        0.0076
@<TRIPOS>BOND
     1    26    27    1
     2    27    28    1
     3    27    29    1
     4    27    21    1
     5    21    22   ar
     6    22    23   ar
     7    23    17    1
     8    17    18   am
     9    18    19    2
    10     1    18    1
    11     1     2    1
    12     2     3    1
    13     3     4    1
    14     4     5    1
    15     5     6    1
    16     6     7   am
    17     7     8    2
    18     7     9   am
    19     9    10    1
    20    10    11    1
    21    11    12    1
    22    12    13    2
    23    12    14    2
    24    12    15    1
    25    15    16    1
    26    23    24   ar
    27    24    25   ar
    28    25    21   ar
    29     6     1    1
    30    16     9    1
    31    17    20    1
@<TRIPOS>MOLECULE
*****
 29 31 0 0 0
SMALL
GASTEIGER

@<TRIPOS>ATOM
      1 C          63.7148   86.6221   13.7765 C.3     1  UNL1        0.1533
      2 C          64.2653   85.3620   14.3757 C.3     1  UNL1        0.0293
      3 C          63.9665   84.0366   13.7403 C.3     1  UNL1        0.0040
      4 C          63.1172   83.9712   12.5056 C.3     1  UNL1        0.0216
      5 C          62.5667   85.2312   11.9064 C.3     1  UNL1        0.0954
      6 N          62.8655   86.5567   12.5418 N.am    1  UNL1       -0.2573
      7 C          62.3150   87.8169   11.9425 C.2     1  UNL1        0.3076
      8 O          62.6138   89.1423   12.5780 O.2     1  UNL1       -0.2523
      9 N          61.4657   87.7515   10.7079 N.am    1  UNL1       -0.2604
     10 C          61.1669   86.4259   10.0725 C.3     1  UNL1        0.1203
     11 C          60.3176   86.3605    8.8378 C.3     1  UNL1        0.1723
     12 S          59.7671   87.6207    8.2385 S.O2    1  UNL1       -0.0066
     13 O          59.0230   88.5301    7.3061 O.2     1  UNL1       -0.1729
     14 O          59.2098   86.6110    7.2793 O.2     1  UNL1       -0.1729
     15 C          60.0659   88.9461    8.8740 C.3     1  UNL1        0.1723
     16 C          60.9152   89.0115   10.1086 C.3     1  UNL1        0.1203
     17 N          64.8681   88.9486   13.6924 N.am    1  UNL1       -0.2654
     18 C          64.0136   87.9477   14.4119 C.2     1  UNL1        0.2454
     19 O          63.4579   88.2721   15.7668 O.2     1  UNL1       -0.2730
     20 H          65.2329   88.7357   12.8031 H       1  UNL1        0.1564
     21 C          66.3506   92.2376   15.1244 C.ar    1  UNL1        0.1549
     22 C          66.5138   90.9297   14.4082 C.ar    1  UNL1        0.0733
     23 C          65.1669   90.2742   14.3278 C.ar    1  UNL1        0.1760
     24 N          64.1715   91.1769   14.9943 N.ar    1  UNL1       -0.0621
     25 O          64.9030   92.3903   15.4866 O.2     1  UNL1       -0.3565
     26 C          66.9129   94.1357   14.3623 C.3     1  UNL1        0.0076
     27 C          67.4432   93.2202   15.4255 C.3     1  UNL1        0.0539
     28 C          67.9735   92.3047   16.4888 C.3     1  UNL1        0.0076
     29 C          68.5359   94.2028   15.7267 C.3     1  UNL1        0.0076
@<TRIPOS>BOND
     1    26    27    1
     2    27    28    1
     3    27    29    1
     4    27    21    1
     5    21    22   ar
     6    22    23   ar
     7    23    17    1
     8    17    18   am
     9    18    19    2
    10     1    18    1
    11     1     2    1
    12     2     3    1
    13     3     4    1
    14     4     5    1
    15     5     6    1
    16     6     7   am
    17     7     8    2
    18     7     9   am
    19     9    10    1
    20    10    11    1
    21    11    12    1
    22    12    13    2
    23    12    14    2
    24    12    15    1
    25    15    16    1
    26    23    24   ar
    27    24    25   ar
    28    25    21   ar
    29     6     1    1
    30    16     9    1
    31    17    20    1
@<TRIPOS>MOLECULE
*****
 29 31 0 0 0
SMALL
GASTEIGER

@<TRIPOS>ATOM
      1 C          62.0428   88.6519   10.9452 C.3     1  UNL1        0.1533
      2 C          61.3283   88.8457    9.6407 C.3     1  UNL1        0.0293
      3 C          61.5218   90.1120    8.8604 C.3     1  UNL1        0.0040
      4 C          62.4299   91.1846    9.3847 C.3     1  UNL1        0.0216
      5 C          63.1445   90.9909   10.6892 C.3     1  UNL1        0.0954
      6 N          62.9509   89.7245   11.4695 N.am    1  UNL1       -0.2573
      7 C          63.6654   89.5307   12.7741 C.2     1  UNL1        0.3076
      8 O          63.4719   88.2644   13.5544 O.2     1  UNL1       -0.2523
      9 N          64.5735   90.6033   13.2984 N.am    1  UNL1       -0.2604
     10 C          64.7671   91.8697   12.5180 C.3     1  UNL1        0.1203
     11 C          65.6752   92.9424   13.0423 C.3     1  UNL1        0.1723
     12 S          66.3897   92.7486   14.3469 S.O2    1  UNL1       -0.0066
     13 O          67.2788   93.0284   15.5223 O.2     1  UNL1       -0.1729
     14 O          66.8921   94.1121   13.9748 O.2     1  UNL1       -0.1729
     15 C          66.1962   91.4822   15.1272 C.3     1  UNL1        0.1723
     16 C          65.2881   90.4096   14.6029 C.3     1  UNL1        0.1203
     17 N          62.9463   86.3641   11.7818 N.am    1  UNL1       -0.2654
     18 C          61.8493   87.3855   11.7256 C.2     1  UNL1        0.2454
     19 O          60.5586   87.1406   12.4497 O.2     1  UNL1       -0.2730
     20 H          63.7934   86.5249   11.3065 H       1  UNL1        0.1564
     21 C          62.5109   82.7504   13.1299 C.ar    1  UNL1        0.1549
     22 C          62.7295   83.7086   11.9966 C.ar    1  UNL1        0.0733
     23 C          62.7527   85.0977   12.5621 C.ar    1  UNL1        0.1760
     24 N          62.5485   84.9982   14.0448 N.ar    1  UNL1       -0.0621
     25 O          62.3990   83.5475   14.3957 O.2     1  UNL1       -0.3565
     26 C          63.2084   81.3058   11.7419 C.3     1  UNL1        0.0076
     27 C          62.4201   81.2574   13.0172 C.3     1  UNL1        0.0539
     28 C          61.6318   81.2091   14.2924 C.3     1  UNL1        0.0076
     29 C          62.3293   79.7645   12.9044 C.3     1  UNL1        0.0076
@<TRIPOS>BOND
     1    26    27    1
     2    27    28    1
     3    27    29    1
     4    27    21    1
     5    21    22   ar
     6    22    23   ar
     7    23    17    1
     8    17    18   am
     9    18    19    2
    10     1    18    1
    11     1     2    1
    12     2     3    1
    13     3     4    1
    14     4     5    1
    15     5     6    1
    16     6     7   am
    17     7     8    2
    18     7     9   am
    19     9    10    1
    20    10    11    1
    21    11    12    1
    22    12    13    2
    23    12    14    2
    24    12    15    1
    25    15    16    1
    26    23    24   ar
    27    24    25   ar
    28    25    21   ar
    29     6     1    1
    30    16     9    1
    31    17    20    1
@<TRIPOS>MOLECULE
*****
 29 31 0 0 0
SMALL
GASTEIGER

@<TRIPOS>ATOM
      1 C          63.5998   90.3664   14.2318 C.3     1  UNL1        0.1533
      2 C          63.5693   90.1791   15.7197 C.3     1  UNL1        0.0293
      3 C          64.3066   91.1341   16.6110 C.3     1  UNL1        0.0040
      4 C          65.0743   92.2763   16.0143 C.3     1  UNL1        0.0216
      5 C          65.1048   92.4635   14.5264 C.3     1  UNL1        0.0954
      6 N          64.3675   91.5086   13.6351 N.am    1  UNL1       -0.2573
      7 C          64.3980   91.6958   12.1471 C.2     1  UNL1        0.3076
      8 O          63.6608   90.7408   11.2558 O.2     1  UNL1       -0.2523
      9 N          65.1657   92.8380   11.5505 N.am    1  UNL1       -0.2604
     10 C          65.9030   93.7930   12.4419 C.3     1  UNL1        0.1203
     11 C          66.6707   94.9352   11.8453 C.3     1  UNL1        0.1723
     12 S          66.7012   95.1224   10.3572 S.O2    1  UNL1       -0.0066
     13 O          67.0270   95.7125    9.0172 O.2     1  UNL1       -0.1729
     14 O          67.5516   96.2823   10.7832 O.2     1  UNL1       -0.1729
     15 C          65.9639   94.1674    9.4659 C.3     1  UNL1        0.1723
     16 C          65.1962   93.0252   10.0626 C.3     1  UNL1        0.1203
     17 N          63.5646   88.2060   12.7890 N.am    1  UNL1       -0.2654
     18 C          62.8625   89.4114   13.3404 C.2     1  UNL1        0.2454
     19 O          61.4232   89.6619   13.0004 O.2     1  UNL1       -0.2730
     20 H          64.5093   88.0416   13.0121 H       1  UNL1        0.1564
     21 C          61.6596   86.3063    9.9911 C.ar    1  UNL1        0.1549
     22 C          62.3402   87.5390   10.5084 C.ar    1  UNL1        0.0733
     23 C          62.8273   87.2510   11.8976 C.ar    1  UNL1        0.1760
     24 N          62.4478   85.8405   12.2389 N.ar    1  UNL1       -0.0621
     25 O          61.7261   85.2567   11.0607 O.2     1  UNL1       -0.3565
     26 C          62.2225   85.3847    8.1654 C.3     1  UNL1        0.0076
     27 C          61.0240   86.1507    8.6414 C.3     1  UNL1        0.0539
     28 C          59.8255   86.9168    9.1174 C.3     1  UNL1        0.0076
     29 C          60.3885   85.9951    7.2916 C.3     1  UNL1        0.0076
@<TRIPOS>BOND
     1    26    27    1
     2    27    28    1
     3    27    29    1
     4    27    21    1
     5    21    22   ar
     6    22    23   ar
     7    23    17    1
     8    17    18   am
     9    18    19    2
    10     1    18    1
    11     1     2    1
    12     2     3    1
    13     3     4    1
    14     4     5    1
    15     5     6    1
    16     6     7   am
    17     7     8    2
    18     7     9   am
    19     9    10    1
    20    10    11    1
    21    11    12    1
    22    12    13    2
    23    12    14    2
    24    12    15    1
    25    15    16    1
    26    23    24   ar
    27    24    25   ar
    28    25    21   ar
    29     6     1    1
    30    16     9    1
    31    17    20    1
@<TRIPOS>MOLECULE
*****
 29 31 0 0 0
SMALL
GASTEIGER

@<TRIPOS>ATOM
      1 C          62.8858   87.9463   11.8757 C.3     1  UNL1        0.1533
      2 C          63.3553   89.1443   12.6466 C.3     1  UNL1        0.0293
      3 C          64.0245   88.9649   13.9770 C.3     1  UNL1        0.0040
      4 C          64.2242   87.5875   14.5365 C.3     1  UNL1        0.0216
      5 C          63.7547   86.3895   13.7655 C.3     1  UNL1        0.0954
      6 N          63.0855   86.5689   12.4351 N.am    1  UNL1       -0.2573
      7 C          62.6160   85.3709   11.6641 C.2     1  UNL1        0.3076
      8 O          61.9468   85.5503   10.3337 O.2     1  UNL1       -0.2523
      9 N          62.8157   83.9935   12.2236 N.am    1  UNL1       -0.2604
     10 C          63.4849   83.8142   13.5540 C.3     1  UNL1        0.1203
     11 C          63.6847   82.4368   14.1134 C.3     1  UNL1        0.1723
     12 S          63.2151   81.2388   13.3424 S.O2    1  UNL1       -0.0066
     13 O          62.9455   79.8056   12.9911 O.2     1  UNL1       -0.1729
     14 O          63.7907   80.5617   14.5509 O.2     1  UNL1       -0.1729
     15 C          62.5459   81.4182   12.0121 C.3     1  UNL1        0.1723
     16 C          62.3462   82.7956   11.4526 C.3     1  UNL1        0.1203
     17 N          60.7194   88.1292   10.4532 N.am    1  UNL1       -0.2654
     18 C          62.2166   88.1256   10.5453 C.2     1  UNL1        0.2454
     19 O          63.0446   88.3015    9.3069 O.2     1  UNL1       -0.2730
     20 H          60.1760   88.0138   11.2660 H       1  UNL1        0.1564
     21 C          59.2629   89.2939    7.0491 C.ar    1  UNL1        0.1549
     22 C          60.0493   89.5616    8.2982 C.ar    1  UNL1        0.0733
     23 C          60.0502   88.3085    9.1228 C.ar    1  UNL1        0.1760
     24 N          59.2645   87.2665    8.3834 N.ar    1  UNL1       -0.0621
     25 O          58.7779   87.8754    7.1018 O.2     1  UNL1       -0.3565
     26 C          60.4845   90.4423    5.7496 C.3     1  UNL1        0.0076
     27 C          59.0066   90.2727    5.9418 C.3     1  UNL1        0.0539
     28 C          57.5287   90.1031    6.1340 C.3     1  UNL1        0.0076
     29 C          58.7503   91.2516    4.8345 C.3     1  UNL1        0.0076
@<TRIPOS>BOND
     1    26    27    1
     2    27    28    1
     3    27    29    1
     4    27    21    1
     5    21    22   ar
     6    22    23   ar
     7    23    17    1
     8    17    18   am
     9    18    19    2
    10     1    18    1
    11     1     2    1
    12     2     3    1
    13     3     4    1
    14     4     5    1
    15     5     6    1
    16     6     7   am
    17     7     8    2
    18     7     9   am
    19     9    10    1
    20    10    11    1
    21    11    12    1
    22    12    13    2
    23    12    14    2
    24    12    15    1
    25    15    16    1
    26    23    24   ar
    27    24    25   ar
    28    25    21   ar
    29     6     1    1
    30    16     9    1
    31    17    20    1
