@<TRIPOS>MOLECULE
*****
 36 40 0 0 0
SMALL
GASTEIGER

@<TRIPOS>ATOM
      1 O          63.6643   87.4148   13.3224 O.2     1  UNL1       -0.2699
      2 C          62.7728   86.7874   12.2921 C.2     1  UNL1        0.2506
      3 N          61.8397   87.6424   11.4870 N.am    1  UNL1       -0.2723
      4 C          60.9482   87.0149   10.4567 C.3     1  UNL1        0.1257
      5 C          60.0150   87.8700    9.6515 C.3     1  UNL1        0.1637
      6 O          59.9734   89.3524    9.8767 O.3     1  UNL1       -0.3502
      7 C          60.8649   89.9798   10.9070 C.3     1  UNL1        0.1622
      8 C          61.7980   89.1248   11.7121 C.3     1  UNL1        0.1097
      9 C          62.8144   85.3049   12.0670 C.ar    1  UNL1        0.0729
     10 C          62.8081   84.7580   10.6702 C.ar    1  UNL1        0.0060
     11 C          62.8497   83.2756   10.4451 C.ar    1  UNL1        0.0041
     12 C          62.8977   82.3402   11.6166 C.ar    1  UNL1        0.0730
     13 C          62.9040   82.8871   13.0133 C.ar    1  UNL1        0.0249
     14 C          62.8624   84.3695   13.2385 C.ar    1  UNL1        0.1072
     15 N          62.8688   84.9164   14.6352 N.ar    1  UNL1       -0.1477
     16 N          64.0660   85.4401   15.3716 N.ar    1  UNL1       -0.1447
     17 C          63.6162   85.8830   16.7323 C.ar    1  UNL1        0.1446
     18 C          62.1409   85.6330   16.8369 C.ar    1  UNL1        0.1446
     19 N          61.6790   85.0356   15.5409 N.ar    1  UNL1       -0.1447
     20 C          62.9393   80.8577   11.3915 C.3     1  UNL1        0.4186
     21 F          62.9810   79.3753   11.1663 F       1  UNL1       -0.1659
     22 F          63.2878   81.0864    9.9506 F       1  UNL1       -0.1659
     23 F          62.5908   80.6290   12.8323 F       1  UNL1       -0.1659
     24 C          62.6896   89.7523   12.7424 C.3     1  UNL1        0.0510
     25 C          63.7583   90.7171   12.3220 C.ar    1  UNL1        0.0086
     26 C          64.8016   91.1563   13.3062 C.ar    1  UNL1        0.0189
     27 C          65.8704   92.1212   12.8858 C.ar    1  UNL1        0.1027
     28 C          65.8958   92.6469   11.4811 C.ar    1  UNL1        0.0232
     29 C          64.8525   92.2077   10.4969 C.ar    1  UNL1        0.0309
     30 C          63.7838   91.2428   10.9174 C.ar    1  UNL1        0.1363
     31 F          62.7405   90.8037    9.9332 F       1  UNL1       -0.2045
     32 N          66.9137   92.5603   13.8700 N.ar    1  UNL1       -0.1478
     33 N          66.7060   93.5159   15.0074 N.ar    1  UNL1       -0.1447
     34 C          68.0117   93.6672   15.7300 C.ar    1  UNL1        0.1446
     35 C          69.0265   92.8051   15.0391 C.ar    1  UNL1        0.1446
     36 N          68.3478   92.1211   13.8895 N.ar    1  UNL1       -0.1447
@<TRIPOS>BOND
     1     1     2    2
     2     2     9    1
     3     9    10   ar
     4    10    11   ar
     5    11    12   ar
     6    12    20    1
     7    20    21    1
     8    20    22    1
     9    20    23    1
    10    12    13   ar
    11    13    14   ar
    12    14    15    1
    13    15    16   ar
    14    16    17   ar
    15    17    18   ar
    16    18    19   ar
    17     2     3   am
    18     3     4    1
    19     4     5    1
    20     5     6    1
    21     6     7    1
    22     7     8    1
    23     8    24    1
    24    24    25    1
    25    25    26   ar
    26    26    27   ar
    27    27    32    1
    28    32    33   ar
    29    33    34   ar
    30    34    35   ar
    31    35    36   ar
    32    27    28   ar
    33    28    29   ar
    34    29    30   ar
    35    30    31    1
    36    14     9   ar
    37    19    15   ar
    38     8     3    1
    39    30    25   ar
    40    36    32   ar
@<TRIPOS>MOLECULE
*****
 36 40 0 0 0
SMALL
GASTEIGER

@<TRIPOS>ATOM
      1 O          63.8932   87.4820   14.1369 O.2     1  UNL1       -0.2699
      2 C          63.2689   87.0689   12.8371 C.2     1  UNL1        0.2506
      3 N          62.7450   88.1096   11.8924 N.am    1  UNL1       -0.2723
      4 C          62.1208   87.6965   10.5926 C.3     1  UNL1        0.1257
      5 C          61.5969   88.7374    9.6479 C.3     1  UNL1        0.1637
      6 O          61.6973   90.1912   10.0031 O.3     1  UNL1       -0.3502
      7 C          62.3216   90.6043   11.3030 C.3     1  UNL1        0.1622
      8 C          62.8455   89.5636   12.2476 C.3     1  UNL1        0.1097
      9 C          63.1685   85.6150   12.4819 C.ar    1  UNL1        0.0729
     10 C          63.2231   85.1885   11.0448 C.ar    1  UNL1        0.0060
     11 C          63.1227   83.7347   10.6896 C.ar    1  UNL1        0.0041
     12 C          62.9677   82.7073   11.7714 C.ar    1  UNL1        0.0730
     13 C          62.9131   83.1338   13.2085 C.ar    1  UNL1        0.0249
     14 C          63.0135   84.5876   13.5637 C.ar    1  UNL1        0.1072
     15 N          62.9588   85.0141   15.0008 N.ar    1  UNL1       -0.1477
     16 N          64.1394   85.2829   15.8862 N.ar    1  UNL1       -0.1447
     17 C          63.6243   85.6816   17.2374 C.ar    1  UNL1        0.1446
     18 C          62.1253   85.6591   17.1871 C.ar    1  UNL1        0.1446
     19 N          61.7141   85.2466   15.8048 N.ar    1  UNL1       -0.1447
     20 C          62.8672   81.2534   11.4163 C.3     1  UNL1        0.4186
     21 F          62.7668   79.7995   11.0611 F       1  UNL1       -0.1659
     22 F          62.2211   80.9745   12.7409 F       1  UNL1       -0.1659
     23 F          63.5134   81.5323   10.0917 F       1  UNL1       -0.1659
     24 C          63.4697   89.9767   13.5474 C.3     1  UNL1        0.0510
     25 C          64.5343   91.0332   13.5659 C.ar    1  UNL1        0.0086
     26 C          65.1233   91.5269   12.2777 C.ar    1  UNL1        0.0189
     27 C          66.1879   92.5835   12.2961 C.ar    1  UNL1        0.1027
     28 C          66.6636   93.1463   13.6027 C.ar    1  UNL1        0.0232
     29 C          66.0746   92.6524   14.8908 C.ar    1  UNL1        0.0309
     30 C          65.0100   91.5959   14.8724 C.ar    1  UNL1        0.1363
     31 F          64.4211   91.1022   16.1605 F       1  UNL1       -0.2045
     32 N          66.7768   93.0773   11.0080 N.ar    1  UNL1       -0.1478
     33 N          68.0052   92.5387   10.3365 N.ar    1  UNL1       -0.1447
     34 C          68.2284   93.3248    9.0787 C.ar    1  UNL1        0.1446
     35 C          67.1379   94.3494    8.9728 C.ar    1  UNL1        0.1446
     36 N          66.2408   94.1964   10.1652 N.ar    1  UNL1       -0.1447
@<TRIPOS>BOND
     1     1     2    2
     2     2     9    1
     3     9    10   ar
     4    10    11   ar
     5    11    12   ar
     6    12    20    1
     7    20    21    1
     8    20    22    1
     9    20    23    1
    10    12    13   ar
    11    13    14   ar
    12    14    15    1
    13    15    16   ar
    14    16    17   ar
    15    17    18   ar
    16    18    19   ar
    17     2     3   am
    18     3     4    1
    19     4     5    1
    20     5     6    1
    21     6     7    1
    22     7     8    1
    23     8    24    1
    24    24    25    1
    25    25    26   ar
    26    26    27   ar
    27    27    32    1
    28    32    33   ar
    29    33    34   ar
    30    34    35   ar
    31    35    36   ar
    32    27    28   ar
    33    28    29   ar
    34    29    30   ar
    35    30    31    1
    36    14     9   ar
    37    19    15   ar
    38     8     3    1
    39    30    25   ar
    40    36    32   ar
@<TRIPOS>MOLECULE
*****
 36 40 0 0 0
SMALL
GASTEIGER

@<TRIPOS>ATOM
      1 O          63.5071   88.9124   12.2717 O.2     1  UNL1       -0.2699
      2 C          63.4112   87.7675   13.2361 C.2     1  UNL1        0.2506
      3 N          63.3497   88.0326   14.7112 N.am    1  UNL1       -0.2723
      4 C          63.2538   86.8878   15.6756 C.3     1  UNL1        0.1257
      5 C          63.1923   87.1529   17.1508 C.3     1  UNL1        0.1637
      6 O          63.2266   88.5629   17.6614 O.3     1  UNL1       -0.3502
      7 C          63.3225   89.7077   16.6970 C.3     1  UNL1        0.1622
      8 C          63.3840   89.4426   15.2219 C.3     1  UNL1        0.1097
      9 C          63.3769   86.3575   12.7254 C.ar    1  UNL1        0.0729
     10 C          64.2090   85.2996   13.3874 C.ar    1  UNL1        0.0060
     11 C          64.1747   83.8896   12.8768 C.ar    1  UNL1        0.0041
     12 C          63.3083   83.5376   11.7041 C.ar    1  UNL1        0.0730
     13 C          62.4761   84.5956   11.0420 C.ar    1  UNL1        0.0249
     14 C          62.5104   86.0055   11.5527 C.ar    1  UNL1        0.1072
     15 N          61.6783   87.0634   10.8906 N.ar    1  UNL1       -0.1477
     16 N          60.4351   87.6872   11.4522 N.ar    1  UNL1       -0.1447
     17 C          59.9317   88.6926   10.4594 C.ar    1  UNL1        0.1446
     18 C          60.8638   88.6903    9.2842 C.ar    1  UNL1        0.1446
     19 N          61.9432   87.6834    9.5507 N.ar    1  UNL1       -0.1447
     20 C          63.2739   82.1276   11.1933 C.3     1  UNL1        0.4186
     21 F          63.2396   80.7177   10.6826 F       1  UNL1       -0.1659
     22 F          64.4059   82.4383   10.2595 F       1  UNL1       -0.1659
     23 F          62.1419   81.8169   12.1271 F       1  UNL1       -0.1659
     24 C          63.4799   90.5875   14.2575 C.3     1  UNL1        0.0510
     25 C          64.7371   91.4022   14.1831 C.ar    1  UNL1        0.0086
     26 C          65.3904   91.6537   12.8564 C.ar    1  UNL1        0.0189
     27 C          66.6477   92.4685   12.7820 C.ar    1  UNL1        0.1027
     28 C          67.2517   93.0316   14.0342 C.ar    1  UNL1        0.0232
     29 C          66.5984   92.7800   15.3609 C.ar    1  UNL1        0.0309
     30 C          65.3411   91.9654   15.4353 C.ar    1  UNL1        0.1363
     31 F          64.6879   91.7138   16.7619 F       1  UNL1       -0.2045
     32 N          67.3009   92.7200   11.4554 N.ar    1  UNL1       -0.1478
     33 N          67.0033   93.8610   10.5283 N.ar    1  UNL1       -0.1447
     34 C          67.8849   93.7209    9.3228 C.ar    1  UNL1        0.1446
     35 C          68.7274   92.4932    9.5049 C.ar    1  UNL1        0.1446
     36 N          68.3664   91.8747   10.8228 N.ar    1  UNL1       -0.1447
@<TRIPOS>BOND
     1     1     2    2
     2     2     9    1
     3     9    10   ar
     4    10    11   ar
     5    11    12   ar
     6    12    20    1
     7    20    21    1
     8    20    22    1
     9    20    23    1
    10    12    13   ar
    11    13    14   ar
    12    14    15    1
    13    15    16   ar
    14    16    17   ar
    15    17    18   ar
    16    18    19   ar
    17     2     3   am
    18     3     4    1
    19     4     5    1
    20     5     6    1
    21     6     7    1
    22     7     8    1
    23     8    24    1
    24    24    25    1
    25    25    26   ar
    26    26    27   ar
    27    27    32    1
    28    32    33   ar
    29    33    34   ar
    30    34    35   ar
    31    35    36   ar
    32    27    28   ar
    33    28    29   ar
    34    29    30   ar
    35    30    31    1
    36    14     9   ar
    37    19    15   ar
    38     8     3    1
    39    30    25   ar
    40    36    32   ar
@<TRIPOS>MOLECULE
*****
 36 40 0 0 0
SMALL
GASTEIGER

@<TRIPOS>ATOM
      1 O          63.7692   88.8113   11.9907 O.2     1  UNL1       -0.2699
      2 C          63.5911   87.9857   13.2304 C.2     1  UNL1        0.2506
      3 N          63.4771   88.6556   14.5676 N.am    1  UNL1       -0.2723
      4 C          63.2990   87.8301   15.8073 C.3     1  UNL1        0.1257
      5 C          63.1850   88.5000   17.1445 C.3     1  UNL1        0.1637
      6 O          63.2493   89.9954   17.2421 O.3     1  UNL1       -0.3502
      7 C          63.4274   90.8210   16.0024 C.3     1  UNL1        0.1622
      8 C          63.5413   90.1511   14.6652 C.3     1  UNL1        0.1097
      9 C          63.5269   86.4902   13.1327 C.ar    1  UNL1        0.0729
     10 C          64.3464   85.6423   14.0598 C.ar    1  UNL1        0.0060
     11 C          64.2822   84.1469   13.9622 C.ar    1  UNL1        0.0041
     12 C          63.3986   83.4994   12.9376 C.ar    1  UNL1        0.0730
     13 C          62.5791   84.3474   12.0105 C.ar    1  UNL1        0.0249
     14 C          62.6432   85.8428   12.1081 C.ar    1  UNL1        0.1072
     15 N          61.8238   86.6907   11.1811 N.ar    1  UNL1       -0.1477
     16 N          60.6031   87.4786   11.5541 N.ar    1  UNL1       -0.1447
     17 C          60.1060   88.1745   10.3218 C.ar    1  UNL1        0.1446
     18 C          61.0194   87.8167    9.1871 C.ar    1  UNL1        0.1446
     19 N          62.0811   86.8997    9.7182 N.ar    1  UNL1       -0.1447
     20 C          63.3344   82.0039   12.8399 C.3     1  UNL1        0.4186
     21 F          63.2702   80.5085   12.7423 F       1  UNL1       -0.1659
     22 F          64.8029   81.9607   12.5375 F       1  UNL1       -0.1659
     23 F          61.8658   82.0472   13.1424 F       1  UNL1       -0.1659
     24 C          63.7195   90.9766   13.4256 C.3     1  UNL1        0.0510
     25 C          65.0401   91.6291   13.1423 C.ar    1  UNL1        0.0086
     26 C          65.1505   92.6586   12.0571 C.ar    1  UNL1        0.0189
     27 C          66.4712   93.3111   11.7738 C.ar    1  UNL1        0.1027
     28 C          67.6814   92.9341   12.5758 C.ar    1  UNL1        0.0232
     29 C          67.5709   91.9045   13.6611 C.ar    1  UNL1        0.0309
     30 C          66.2503   91.2520   13.9443 C.ar    1  UNL1        0.1363
     31 F          66.1399   90.2225   15.0296 F       1  UNL1       -0.2045
     32 N          66.5816   94.3407   10.6885 N.ar    1  UNL1       -0.1478
     33 N          65.5730   95.4068   10.3788 N.ar    1  UNL1       -0.1447
     34 C          66.0880   96.2099    9.2213 C.ar    1  UNL1        0.1446
     35 C          67.4150   95.6401    8.8156 C.ar    1  UNL1        0.1446
     36 N          67.7200   94.4848    9.7225 N.ar    1  UNL1       -0.1447
@<TRIPOS>BOND
     1     1     2    2
     2     2     9    1
     3     9    10   ar
     4    10    11   ar
     5    11    12   ar
     6    12    20    1
     7    20    21    1
     8    20    22    1
     9    20    23    1
    10    12    13   ar
    11    13    14   ar
    12    14    15    1
    13    15    16   ar
    14    16    17   ar
    15    17    18   ar
    16    18    19   ar
    17     2     3   am
    18     3     4    1
    19     4     5    1
    20     5     6    1
    21     6     7    1
    22     7     8    1
    23     8    24    1
    24    24    25    1
    25    25    26   ar
    26    26    27   ar
    27    27    32    1
    28    32    33   ar
    29    33    34   ar
    30    34    35   ar
    31    35    36   ar
    32    27    28   ar
    33    28    29   ar
    34    29    30   ar
    35    30    31    1
    36    14     9   ar
    37    19    15   ar
    38     8     3    1
    39    30    25   ar
    40    36    32   ar
@<TRIPOS>MOLECULE
*****
 36 40 0 0 0
SMALL
GASTEIGER

@<TRIPOS>ATOM
      1 O          63.4632   88.4532   11.8230 O.2     1  UNL1       -0.2699
      2 C          63.4314   87.7720   13.1590 C.2     1  UNL1        0.2506
      3 N          63.3625   88.5882   14.4156 N.am    1  UNL1       -0.2723
      4 C          63.3307   87.9070   15.7516 C.3     1  UNL1        0.1257
      5 C          63.2617   88.7232   17.0082 C.3     1  UNL1        0.1637
      6 O          63.2246   90.2206   16.9288 O.3     1  UNL1       -0.3502
      7 C          63.2564   90.9019   15.5928 C.3     1  UNL1        0.1622
      8 C          63.3253   90.0857   14.3362 C.3     1  UNL1        0.1097
      9 C          63.4685   86.2745   13.2384 C.ar    1  UNL1        0.0729
     10 C          64.2670   85.6001   14.3143 C.ar    1  UNL1        0.0060
     11 C          64.3042   84.1027   14.3937 C.ar    1  UNL1        0.0041
     12 C          63.5429   83.2797   13.3972 C.ar    1  UNL1        0.0730
     13 C          62.7444   83.9541   12.3213 C.ar    1  UNL1        0.0249
     14 C          62.7072   85.4515   12.2419 C.ar    1  UNL1        0.1072
     15 N          61.9087   86.1259   11.1660 N.ar    1  UNL1       -0.1477
     16 N          60.7142   87.0084   11.3764 N.ar    1  UNL1       -0.1447
     17 C          60.2318   87.4642   10.0312 C.ar    1  UNL1        0.1446
     18 C          61.1282   86.8633    8.9894 C.ar    1  UNL1        0.1446
     19 N          62.1646   86.0363    9.6907 N.ar    1  UNL1       -0.1447
     20 C          63.5800   81.7822   13.4766 C.3     1  UNL1        0.4186
     21 F          63.6172   80.2848   13.5560 F       1  UNL1       -0.1659
     22 F          64.7189   81.7588   12.5007 F       1  UNL1       -0.1659
     23 F          62.4411   81.8056   14.4525 F       1  UNL1       -0.1659
     24 C          63.3571   90.7669   13.0002 C.3     1  UNL1        0.0510
     25 C          64.5564   91.5729   12.5976 C.ar    1  UNL1        0.0086
     26 C          65.6002   91.9240   13.6160 C.ar    1  UNL1        0.0189
     27 C          66.7995   92.7301   13.2135 C.ar    1  UNL1        0.1027
     28 C          66.9549   93.1850   11.7926 C.ar    1  UNL1        0.0232
     29 C          65.9110   92.8339   10.7742 C.ar    1  UNL1        0.0309
     30 C          64.7118   92.0278   11.1768 C.ar    1  UNL1        0.1363
     31 F          63.6679   91.6767   10.1584 F       1  UNL1       -0.2045
     32 N          67.8433   93.0812   14.2318 N.ar    1  UNL1       -0.1478
     33 N          69.2472   92.5545   14.2731 N.ar    1  UNL1       -0.1447
     34 C          69.9381   93.1685   15.4545 C.ar    1  UNL1        0.1446
     35 C          68.9612   94.0747   16.1434 C.ar    1  UNL1        0.1446
     36 N          67.6666   94.0207   15.3878 N.ar    1  UNL1       -0.1447
@<TRIPOS>BOND
     1     1     2    2
     2     2     9    1
     3     9    10   ar
     4    10    11   ar
     5    11    12   ar
     6    12    20    1
     7    20    21    1
     8    20    22    1
     9    20    23    1
    10    12    13   ar
    11    13    14   ar
    12    14    15    1
    13    15    16   ar
    14    16    17   ar
    15    17    18   ar
    16    18    19   ar
    17     2     3   am
    18     3     4    1
    19     4     5    1
    20     5     6    1
    21     6     7    1
    22     7     8    1
    23     8    24    1
    24    24    25    1
    25    25    26   ar
    26    26    27   ar
    27    27    32    1
    28    32    33   ar
    29    33    34   ar
    30    34    35   ar
    31    35    36   ar
    32    27    28   ar
    33    28    29   ar
    34    29    30   ar
    35    30    31    1
    36    14     9   ar
    37    19    15   ar
    38     8     3    1
    39    30    25   ar
    40    36    32   ar
@<TRIPOS>MOLECULE
*****
 36 40 0 0 0
SMALL
GASTEIGER

@<TRIPOS>ATOM
      1 O          62.5818   90.2153   11.6968 O.2     1  UNL1       -0.2699
      2 C          62.7433   88.7250   11.7503 C.2     1  UNL1        0.2506
      3 N          63.4075   88.0846   12.9329 N.am    1  UNL1       -0.2723
      4 C          63.5690   86.5943   12.9864 C.3     1  UNL1        0.1257
      5 C          64.2333   85.9538   14.1691 C.3     1  UNL1        0.1637
      6 O          64.7360   86.8037   15.2982 O.3     1  UNL1       -0.3502
      7 C          64.5745   88.2940   15.2447 C.3     1  UNL1        0.1622
      8 C          63.9103   88.9345   14.0621 C.3     1  UNL1        0.1097
      9 C          62.2405   87.8751   10.6211 C.ar    1  UNL1        0.0729
     10 C          63.1734   86.9348    9.9172 C.ar    1  UNL1        0.0060
     11 C          62.6707   86.0850    8.7880 C.ar    1  UNL1        0.0041
     12 C          61.2351   86.1754    8.3629 C.ar    1  UNL1        0.0730
     13 C          60.3022   87.1156    9.0669 C.ar    1  UNL1        0.0249
     14 C          60.8049   87.9655   10.1960 C.ar    1  UNL1        0.1072
     15 N          59.8720   88.9058   10.9000 N.ar    1  UNL1       -0.1477
     16 N          59.0354   88.5822   12.1022 N.ar    1  UNL1       -0.1447
     17 C          58.2582   89.8111   12.4706 C.ar    1  UNL1        0.1446
     18 C          58.6145   90.8943   11.4960 C.ar    1  UNL1        0.1446
     19 N          59.6118   90.3347   10.5253 N.ar    1  UNL1       -0.1447
     20 C          60.7323   85.3255    7.2337 C.3     1  UNL1        0.4186
     21 F          60.2295   84.4757    6.1046 F       1  UNL1       -0.1659
     22 F          59.3454   85.8524    7.4547 F       1  UNL1       -0.1659
     23 F          62.1192   84.7986    7.0127 F       1  UNL1       -0.1659
     24 C          63.7488   90.4248   14.0086 C.3     1  UNL1        0.0510
     25 C          64.9593   91.3089   13.9553 C.ar    1  UNL1        0.0086
     26 C          65.5929   91.6342   12.6352 C.ar    1  UNL1        0.0189
     27 C          66.8035   92.5184   12.5818 C.ar    1  UNL1        0.1027
     28 C          67.3805   93.0772   13.8487 C.ar    1  UNL1        0.0232
     29 C          66.7468   92.7519   15.1688 C.ar    1  UNL1        0.0309
     30 C          65.5363   91.8678   15.2221 C.ar    1  UNL1        0.1363
     31 F          64.9027   91.5425   16.5422 F       1  UNL1       -0.2045
     32 N          67.4371   92.8437   11.2617 N.ar    1  UNL1       -0.1478
     33 N          67.2044   94.0863   10.4545 N.ar    1  UNL1       -0.1447
     34 C          68.0381   93.9941    9.2109 C.ar    1  UNL1        0.1446
     35 C          68.7860   92.6944    9.2496 C.ar    1  UNL1        0.1446
     36 N          68.4146   91.9834   10.5171 N.ar    1  UNL1       -0.1447
@<TRIPOS>BOND
     1     1     2    2
     2     2     9    1
     3     9    10   ar
     4    10    11   ar
     5    11    12   ar
     6    12    20    1
     7    20    21    1
     8    20    22    1
     9    20    23    1
    10    12    13   ar
    11    13    14   ar
    12    14    15    1
    13    15    16   ar
    14    16    17   ar
    15    17    18   ar
    16    18    19   ar
    17     2     3   am
    18     3     4    1
    19     4     5    1
    20     5     6    1
    21     6     7    1
    22     7     8    1
    23     8    24    1
    24    24    25    1
    25    25    26   ar
    26    26    27   ar
    27    27    32    1
    28    32    33   ar
    29    33    34   ar
    30    34    35   ar
    31    35    36   ar
    32    27    28   ar
    33    28    29   ar
    34    29    30   ar
    35    30    31    1
    36    14     9   ar
    37    19    15   ar
    38     8     3    1
    39    30    25   ar
    40    36    32   ar
@<TRIPOS>MOLECULE
*****
 36 40 0 0 0
SMALL
GASTEIGER

@<TRIPOS>ATOM
      1 O          60.6810   86.9465   11.5893 O.2     1  UNL1       -0.2699
      2 C          61.0794   86.7535   10.1561 C.2     1  UNL1        0.2506
      3 N          62.0693   85.6878    9.7899 N.am    1  UNL1       -0.2723
      4 C          62.4677   85.4948    8.3567 C.3     1  UNL1        0.1257
      5 C          63.4577   84.4289    7.9905 C.3     1  UNL1        0.1637
      6 O          64.0492   83.5562    9.0575 O.3     1  UNL1       -0.3502
      7 C          63.6508   83.7492   10.4906 C.3     1  UNL1        0.1622
      8 C          62.6609   84.8150   10.8569 C.3     1  UNL1        0.1097
      9 C          60.4878   87.6263    9.0892 C.ar    1  UNL1        0.0729
     10 C          59.6563   87.0186    7.9986 C.ar    1  UNL1        0.0060
     11 C          59.0648   87.8913    6.9317 C.ar    1  UNL1        0.0041
     12 C          59.3048   89.3718    6.9553 C.ar    1  UNL1        0.0730
     13 C          60.1363   89.9795    8.0458 C.ar    1  UNL1        0.0249
     14 C          60.7278   89.1068    9.1127 C.ar    1  UNL1        0.1072
     15 N          61.5594   89.7145   10.2032 N.ar    1  UNL1       -0.1477
     16 N          62.9588   90.2349   10.0590 N.ar    1  UNL1       -0.1447
     17 C          63.4018   90.7506   11.3961 C.ar    1  UNL1        0.1446
     18 C          62.2761   90.5489   12.3668 C.ar    1  UNL1        0.1446
     19 N          61.1375   89.9086   11.6296 N.ar    1  UNL1       -0.1447
     20 C          58.7132   90.2446    5.8883 C.3     1  UNL1        0.4186
     21 F          58.1218   91.1174    4.8214 F       1  UNL1       -0.1659
     22 F          60.0914   90.5974    5.4129 F       1  UNL1       -0.1659
     23 F          57.3350   89.8918    6.3638 F       1  UNL1       -0.1659
     24 C          62.2624   85.0080   12.2900 C.3     1  UNL1        0.0510
     25 C          63.2638   85.5150   13.2851 C.ar    1  UNL1        0.0086
     26 C          63.2991   86.9726   13.6373 C.ar    1  UNL1        0.0189
     27 C          64.3005   87.4797   14.6324 C.ar    1  UNL1        0.1027
     28 C          65.2665   86.5291   15.2753 C.ar    1  UNL1        0.0232
     29 C          65.2311   85.0714   14.9230 C.ar    1  UNL1        0.0309
     30 C          64.2297   84.5644   13.9280 C.ar    1  UNL1        0.1363
     31 F          64.1944   83.1068   13.5758 F       1  UNL1       -0.2045
     32 N          64.3359   88.9373   14.9846 N.ar    1  UNL1       -0.1478
     33 N          65.2257   89.9730   14.3637 N.ar    1  UNL1       -0.1447
     34 C          64.9274   91.2909   15.0149 C.ar    1  UNL1        0.1446
     35 C          63.8532   91.0697   16.0384 C.ar    1  UNL1        0.1446
     36 N          63.4877   89.6151   16.0196 N.ar    1  UNL1       -0.1447
@<TRIPOS>BOND
     1     1     2    2
     2     2     9    1
     3     9    10   ar
     4    10    11   ar
     5    11    12   ar
     6    12    20    1
     7    20    21    1
     8    20    22    1
     9    20    23    1
    10    12    13   ar
    11    13    14   ar
    12    14    15    1
    13    15    16   ar
    14    16    17   ar
    15    17    18   ar
    16    18    19   ar
    17     2     3   am
    18     3     4    1
    19     4     5    1
    20     5     6    1
    21     6     7    1
    22     7     8    1
    23     8    24    1
    24    24    25    1
    25    25    26   ar
    26    26    27   ar
    27    27    32    1
    28    32    33   ar
    29    33    34   ar
    30    34    35   ar
    31    35    36   ar
    32    27    28   ar
    33    28    29   ar
    34    29    30   ar
    35    30    31    1
    36    14     9   ar
    37    19    15   ar
    38     8     3    1
    39    30    25   ar
    40    36    32   ar
@<TRIPOS>MOLECULE
*****
 36 40 0 0 0
SMALL
GASTEIGER

@<TRIPOS>ATOM
      1 O          62.9078   87.8540   12.4803 O.2     1  UNL1       -0.2699
      2 C          62.6654   88.9781   11.5171 C.2     1  UNL1        0.2506
      3 N          61.6115   88.8442   10.4582 N.am    1  UNL1       -0.2723
      4 C          61.3690   89.9683    9.4950 C.3     1  UNL1        0.1257
      5 C          60.3151   89.8344    8.4360 C.3     1  UNL1        0.1637
      6 O          59.5036   88.5765    8.3403 O.3     1  UNL1       -0.3502
      7 C          59.7460   87.4525    9.3035 C.3     1  UNL1        0.1622
      8 C          60.7999   87.5863   10.3624 C.3     1  UNL1        0.1097
      9 C          63.4769   90.2360   11.6128 C.ar    1  UNL1        0.0729
     10 C          63.7319   91.0593   10.3852 C.ar    1  UNL1        0.0060
     11 C          64.5434   92.3171   10.4809 C.ar    1  UNL1        0.0041
     12 C          65.1000   92.7517   11.8042 C.ar    1  UNL1        0.0730
     13 C          64.8450   91.9284   13.0319 C.ar    1  UNL1        0.0249
     14 C          64.0335   90.6705   12.9362 C.ar    1  UNL1        0.1072
     15 N          63.7786   89.8472   14.1639 N.ar    1  UNL1       -0.1477
     16 N          62.7414   90.1241   15.2115 N.ar    1  UNL1       -0.1447
     17 C          62.8379   89.0505   16.2546 C.ar    1  UNL1        0.1446
     18 C          63.9347   88.1100   15.8516 C.ar    1  UNL1        0.1446
     19 N          64.5161   88.6024   14.5595 N.ar    1  UNL1       -0.1447
     20 C          65.9115   94.0096   11.9000 C.3     1  UNL1        0.4186
     21 F          66.7230   95.2674   11.9957 F       1  UNL1       -0.1659
     22 F          65.6840   94.2674   10.4400 F       1  UNL1       -0.1659
     23 F          66.1390   93.7518   13.3600 F       1  UNL1       -0.1659
     24 C          61.0423   86.4623   11.3256 C.3     1  UNL1        0.0510
     25 C          61.9589   85.3363   10.9490 C.ar    1  UNL1        0.0086
     26 C          62.0923   84.1444   11.8498 C.ar    1  UNL1        0.0189
     27 C          63.0089   83.0184   11.4731 C.ar    1  UNL1        0.1027
     28 C          63.7923   83.0843   10.1956 C.ar    1  UNL1        0.0232
     29 C          63.6589   84.2763    9.2947 C.ar    1  UNL1        0.0309
     30 C          62.7423   85.4023    9.6714 C.ar    1  UNL1        0.1363
     31 F          62.6090   86.5942    8.7706 F       1  UNL1       -0.2045
     32 N          63.1422   81.8264   12.3739 N.ar    1  UNL1       -0.1478
     33 N          63.9752   81.7512   13.6191 N.ar    1  UNL1       -0.1447
     34 C          63.8137   80.3788   14.2025 C.ar    1  UNL1        0.1446
     35 C          62.8810   79.6058   13.3178 C.ar    1  UNL1        0.1446
     36 N          62.4660   80.5005   12.1877 N.ar    1  UNL1       -0.1447
@<TRIPOS>BOND
     1     1     2    2
     2     2     9    1
     3     9    10   ar
     4    10    11   ar
     5    11    12   ar
     6    12    20    1
     7    20    21    1
     8    20    22    1
     9    20    23    1
    10    12    13   ar
    11    13    14   ar
    12    14    15    1
    13    15    16   ar
    14    16    17   ar
    15    17    18   ar
    16    18    19   ar
    17     2     3   am
    18     3     4    1
    19     4     5    1
    20     5     6    1
    21     6     7    1
    22     7     8    1
    23     8    24    1
    24    24    25    1
    25    25    26   ar
    26    26    27   ar
    27    27    32    1
    28    32    33   ar
    29    33    34   ar
    30    34    35   ar
    31    35    36   ar
    32    27    28   ar
    33    28    29   ar
    34    29    30   ar
    35    30    31    1
    36    14     9   ar
    37    19    15   ar
    38     8     3    1
    39    30    25   ar
    40    36    32   ar
@<TRIPOS>MOLECULE
*****
 36 40 0 0 0
SMALL
GASTEIGER

@<TRIPOS>ATOM
      1 O          65.1838   85.9613   13.3316 O.2     1  UNL1       -0.2699
      2 C          64.1018   85.1896   14.0270 C.2     1  UNL1        0.2506
      3 N          63.3820   85.7943   15.1959 N.am    1  UNL1       -0.2723
      4 C          62.3000   85.0225   15.8913 C.3     1  UNL1        0.1257
      5 C          61.5803   85.6273   17.0602 C.3     1  UNL1        0.1637
      6 O          61.9426   87.0037   17.5337 O.3     1  UNL1       -0.3502
      7 C          63.0246   87.7754   16.8382 C.3     1  UNL1        0.1622
      8 C          63.7443   87.1707   15.6694 C.3     1  UNL1        0.1097
      9 C          63.7395   83.8131   13.5535 C.ar    1  UNL1        0.0729
     10 C          64.1995   82.6102   14.3226 C.ar    1  UNL1        0.0060
     11 C          63.8372   81.2337   13.8492 C.ar    1  UNL1        0.0041
     12 C          63.0150   81.0602   12.6067 C.ar    1  UNL1        0.0730
     13 C          62.5550   82.2631   11.8377 C.ar    1  UNL1        0.0249
     14 C          62.9172   83.6396   12.3111 C.ar    1  UNL1        0.1072
     15 N          62.4572   84.8425   11.5420 N.ar    1  UNL1       -0.1477
     16 N          62.8343   85.1840   10.1310 N.ar    1  UNL1       -0.1447
     17 C          62.1495   86.4677    9.7659 C.ar    1  UNL1        0.1446
     18 C          61.3492   86.9195   10.9513 C.ar    1  UNL1        0.1446
     19 N          61.5394   85.9151   12.0490 N.ar    1  UNL1       -0.1447
     20 C          62.6527   79.6837   12.1332 C.3     1  UNL1        0.4186
     21 F          62.2904   78.3073   11.6598 F       1  UNL1       -0.1659
     22 F          62.3617   79.2742   13.5466 F       1  UNL1       -0.1659
     23 F          62.9437   80.0933   10.7199 F       1  UNL1       -0.1659
     24 C          64.8264   87.9425   14.9739 C.3     1  UNL1        0.0510
     25 C          64.4765   89.1386   14.1392 C.ar    1  UNL1        0.0086
     26 C          63.3203   89.0755   13.1858 C.ar    1  UNL1        0.0189
     27 C          62.9703   90.2717   12.3510 C.ar    1  UNL1        0.1027
     28 C          63.7767   91.5309   12.4697 C.ar    1  UNL1        0.0232
     29 C          64.9331   91.5940   13.4232 C.ar    1  UNL1        0.0309
     30 C          65.2829   90.3978   14.2579 C.ar    1  UNL1        0.1363
     31 F          66.4392   90.4609   15.2113 F       1  UNL1       -0.2045
     32 N          61.8141   90.2086   11.3976 N.ar    1  UNL1       -0.1478
     33 N          60.3614   90.2405   11.7701 N.ar    1  UNL1       -0.1447
     34 C          59.5570   90.1542   10.5071 C.ar    1  UNL1        0.1446
     35 C          60.5125   90.0689    9.3538 C.ar    1  UNL1        0.1446
     36 N          61.9074   90.1025    9.9043 N.ar    1  UNL1       -0.1447
@<TRIPOS>BOND
     1     1     2    2
     2     2     9    1
     3     9    10   ar
     4    10    11   ar
     5    11    12   ar
     6    12    20    1
     7    20    21    1
     8    20    22    1
     9    20    23    1
    10    12    13   ar
    11    13    14   ar
    12    14    15    1
    13    15    16   ar
    14    16    17   ar
    15    17    18   ar
    16    18    19   ar
    17     2     3   am
    18     3     4    1
    19     4     5    1
    20     5     6    1
    21     6     7    1
    22     7     8    1
    23     8    24    1
    24    24    25    1
    25    25    26   ar
    26    26    27   ar
    27    27    32    1
    28    32    33   ar
    29    33    34   ar
    30    34    35   ar
    31    35    36   ar
    32    27    28   ar
    33    28    29   ar
    34    29    30   ar
    35    30    31    1
    36    14     9   ar
    37    19    15   ar
    38     8     3    1
    39    30    25   ar
    40    36    32   ar
