@<TRIPOS>MOLECULE
*****
 59 65 0 0 0
SMALL
GASTEIGER

@<TRIPOS>ATOM
      1 N          65.3682   89.3524   14.6798 N.3     1  UNL1       -0.1862
      2 C          65.5664   88.1072   15.4923 C.3     1  UNL1        0.1775
      3 C          64.8375   86.8486   15.1258 C.2     1  UNL1        0.2452
      4 O          65.0357   85.6033   15.9384 O.2     1  UNL1       -0.2732
      5 N          63.9104   86.8350   13.9467 N.am    1  UNL1       -0.2541
      6 C          63.1814   85.5763   13.5802 C.3     1  UNL1        0.1577
      7 C          62.2543   85.5628   12.4011 C.2     1  UNL1        0.2445
      8 O          61.5254   84.3041   12.0345 O.2     1  UNL1       -0.2731
      9 N          62.0561   86.8080   11.5885 N.am    1  UNL1       -0.2705
     10 C          62.7851   88.0667   11.9550 C.3     1  UNL1        0.1359
     11 C          63.7122   88.0802   13.1342 C.3     1  UNL1        0.1908
     12 N          64.4411   89.3389   13.5007 N.am    1  UNL1       -0.1863
     13 C          64.2429   90.5841   12.6881 C.2     1  UNL1        0.3191
     14 O          63.3158   90.5706   11.5091 O.2     1  UNL1       -0.2512
     15 N          64.9719   91.8428   13.0547 N.am    1  UNL1       -0.2836
     16 H          65.5804   91.8516   13.8286 H       1  UNL1        0.1513
     17 C          66.0972   90.6111   15.0463 C.3     1  UNL1        0.1188
     18 C          68.0738   92.2362   14.5968 C.2     1  UNL1       -0.0034
     19 C          67.4743   90.8641   14.5083 C.2     1  UNL1       -0.0071
     20 C          63.3796   84.3312   14.3927 C.3     1  UNL1        0.0556
     21 C          63.1737   82.9848   13.7642 C.ar    1  UNL1       -0.0198
     22 C          64.0067   82.5711   12.5875 C.ar    1  UNL1       -0.0011
     23 C          63.8008   81.2248   11.9590 C.ar    1  UNL1        0.0363
     24 C          62.7618   80.2921   12.5074 C.ar    1  UNL1        0.1337
     25 O          62.5559   78.9458   11.8789 O.3     1  UNL1       -0.5055
     26 C          61.9287   80.7058   13.6842 C.ar    1  UNL1        0.0363
     27 C          62.1346   82.0522   14.3126 C.ar    1  UNL1       -0.0011
     28 H          63.0762   78.6874   11.1438 H       1  UNL1        0.2922
     29 C          61.1290   86.7945   10.4094 C.3     1  UNL1        0.1217
     30 C          60.5468   88.0790    9.8983 C.ar    1  UNL1        0.0135
     31 C          60.3611   89.2409   10.8287 C.ar    1  UNL1       -0.0012
     32 C          59.7790   90.5254   10.3176 C.ar    1  UNL1       -0.0002
     33 C          59.3825   90.6480    8.8762 C.ar    1  UNL1        0.0016
     34 C          59.5682   89.4861    7.9458 C.ar    1  UNL1        0.0214
     35 C          59.2726   89.3124    6.4856 C.ar    1  UNL1        0.0719
     36 C          59.6721   87.9205    6.0941 C.ar    1  UNL1        0.0805
     37 N          60.2146   87.2341    7.3125 N.ar    1  UNL1       -0.3241
     38 C          60.7306   85.8271    7.3754 C.3     1  UNL1        0.1305
     39 C          60.1504   88.2016    8.4569 C.ar    1  UNL1        0.0577
     40 C          58.6813   90.3486    5.5763 C.2     1  UNL1        0.2473
     41 O          57.1924   90.4560    5.4296 O.2     1  UNL1       -0.2701
     42 N          59.5790   91.2775    4.8138 N.am    1  UNL1       -0.3008
     43 H          60.5563   91.2070    4.9101 H       1  UNL1        0.1497
     44 C          58.9878   92.3137    3.9046 C.3     1  UNL1        0.0911
     45 C          59.8846   93.1736    3.0641 C.3     1  UNL1        0.0386
     46 C          60.2791   92.7254    1.6881 C.3     1  UNL1        0.0740
     47 N          61.6641   92.9961    1.1795 N.3     1  UNL1       -0.2684
     48 C          61.8604   93.5719   -0.1915 C.3     1  UNL1        0.1046
     49 C          63.2454   93.8426   -0.7001 C.3     1  UNL1        0.1595
     50 O          64.4341   93.5374    0.1624 O.3     1  UNL1       -0.3508
     51 C          64.2377   92.9615    1.5334 C.3     1  UNL1        0.1595
     52 C          62.8528   92.6909    2.0420 C.3     1  UNL1        0.1046
     53 C          64.7737   93.0880   12.2422 C.3     1  UNL1        0.1177
     54 C          65.8120   93.5048   11.2431 C.ar    1  UNL1       -0.0025
     55 C          66.7666   92.4907   10.6860 C.ar    1  UNL1       -0.0026
     56 C          67.8049   92.9075    9.6870 C.ar    1  UNL1       -0.0003
     57 C          67.8887   94.3384    9.2450 C.ar    1  UNL1       -0.0000
     58 C          66.9341   95.3526    9.8020 C.ar    1  UNL1       -0.0003
     59 C          65.8958   94.9358   10.8011 C.ar    1  UNL1       -0.0026
@<TRIPOS>BOND
     1    18    19    2
     2    19    17    1
     3    17     1    1
     4     1     2    1
     5     2     3    1
     6     3     4    2
     7     3     5   am
     8     5     6    1
     9     6    20    1
    10    20    21    1
    11    21    22   ar
    12    22    23   ar
    13    23    24   ar
    14    24    25    1
    15    24    26   ar
    16    26    27   ar
    17     6     7    1
    18     7     8    2
    19     7     9   am
    20     9    29    1
    21    29    30    1
    22    30    31   ar
    23    31    32   ar
    24    32    33   ar
    25    33    34   ar
    26    34    35   ar
    27    35    40    1
    28    40    41    2
    29    40    42   am
    30    42    44    1
    31    44    45    1
    32    45    46    1
    33    46    47    1
    34    47    48    1
    35    48    49    1
    36    49    50    1
    37    50    51    1
    38    51    52    1
    39    35    36   ar
    40    36    37   ar
    41    37    38    1
    42    37    39   ar
    43     9    10    1
    44    11    10    1
    45    11    12    1
    46    12    13   am
    47    13    14    2
    48    13    15   am
    49    15    53    1
    50    53    54    1
    51    54    55   ar
    52    55    56   ar
    53    56    57   ar
    54    57    58   ar
    55    58    59   ar
    56    12     1    1
    57    59    54   ar
    58    11     5    1
    59    27    21   ar
    60    39    30   ar
    61    39    34   ar
    62    52    47    1
    63    25    28    1
    64    42    43    1
    65    15    16    1
@<TRIPOS>MOLECULE
*****
 59 65 0 0 0
SMALL
GASTEIGER

@<TRIPOS>ATOM
      1 N          61.4066   85.6622    8.1238 N.3     1  UNL1       -0.1862
      2 C          62.3506   84.5660    8.5199 C.3     1  UNL1        0.1775
      3 C          63.0311   84.6084    9.8560 C.2     1  UNL1        0.2452
      4 O          63.9752   83.5121   10.2520 O.2     1  UNL1       -0.2732
      5 N          62.7676   85.7472   10.7960 N.am    1  UNL1       -0.2541
      6 C          63.4480   85.7896   12.1321 C.3     1  UNL1        0.1577
      7 C          63.1845   86.9284   13.0722 C.2     1  UNL1        0.2445
      8 O          63.8649   86.9709   14.4083 O.2     1  UNL1       -0.2731
      9 N          62.2404   88.0248   12.6761 N.am    1  UNL1       -0.2705
     10 C          61.5599   87.9823   11.3400 C.3     1  UNL1        0.1359
     11 C          61.8235   86.8435   10.4000 C.3     1  UNL1        0.1908
     12 N          61.1430   86.8010    9.0639 N.am    1  UNL1       -0.1863
     13 C          60.1990   87.8974    8.6679 C.2     1  UNL1        0.3191
     14 O          59.9354   89.0361    9.6079 O.2     1  UNL1       -0.2512
     15 N          59.5185   87.8549    7.3318 N.am    1  UNL1       -0.2836
     16 H          59.6915   87.1075    6.7148 H       1  UNL1        0.1513
     17 C          60.7261   85.6198    6.7877 C.3     1  UNL1        0.1188
     18 C          62.1555   84.2679    5.0909 C.2     1  UNL1       -0.0034
     19 C          60.8995   84.4266    5.8954 C.2     1  UNL1       -0.0071
     20 C          64.3921   84.6934   12.5282 C.3     1  UNL1        0.0556
     21 C          63.8550   83.3890   13.0383 C.ar    1  UNL1       -0.0198
     22 C          62.6609   83.3731   13.9459 C.ar    1  UNL1       -0.0011
     23 C          62.1238   82.0688   14.4560 C.ar    1  UNL1        0.0363
     24 C          62.7810   80.7803   14.0586 C.ar    1  UNL1        0.1337
     25 O          62.2439   79.4759   14.5687 O.3     1  UNL1       -0.5055
     26 C          63.9752   80.7961   13.1510 C.ar    1  UNL1        0.0363
     27 C          64.5122   82.1005   12.6408 C.ar    1  UNL1       -0.0011
     28 H          61.4980   79.4660   15.1357 H       1  UNL1        0.2922
     29 C          61.9768   89.1635   13.6162 C.3     1  UNL1        0.1217
     30 C          63.0807   90.1163   13.9683 C.ar    1  UNL1        0.0135
     31 C          63.6526   90.1220   15.3550 C.ar    1  UNL1       -0.0012
     32 C          64.7563   91.0746   15.7072 C.ar    1  UNL1       -0.0002
     33 C          65.2882   92.0216   14.6726 C.ar    1  UNL1        0.0016
     34 C          64.7163   92.0159   13.2859 C.ar    1  UNL1        0.0214
     35 C          65.0354   92.8272   12.0653 C.ar    1  UNL1        0.0719
     36 C          64.1288   92.3759   10.9588 C.ar    1  UNL1        0.0805
     37 N          63.2495   91.2857   11.4955 N.ar    1  UNL1       -0.3241
     38 C          62.1926   90.5476   10.7286 C.3     1  UNL1        0.1305
     39 C          63.6125   91.0632   12.9338 C.ar    1  UNL1        0.0577
     40 C          66.0781   93.9013   11.9682 C.2     1  UNL1        0.2473
     41 O          67.4745   93.6364   12.4476 O.2     1  UNL1       -0.2701
     42 N          65.7243   95.2401   11.3918 N.am    1  UNL1       -0.3008
     43 H          64.8077   95.4139   11.0772 H       1  UNL1        0.1497
     44 C          66.7668   96.3141   11.2947 C.3     1  UNL1        0.0911
     45 C          67.1654   96.8535    9.9530 C.3     1  UNL1        0.0386
     46 C          67.3248   95.9225    8.7877 C.3     1  UNL1        0.0740
     47 N          67.6302   94.4728    9.0223 N.3     1  UNL1       -0.2684
     48 C          69.0322   94.0431    9.3380 C.3     1  UNL1        0.1046
     49 C          69.3375   92.5934    9.5725 C.3     1  UNL1        0.1595
     50 O          68.2409   91.5733    9.4914 O.3     1  UNL1       -0.3508
     51 C          66.8388   92.0029    9.1757 C.3     1  UNL1        0.1595
     52 C          66.5335   93.4527    8.9411 C.3     1  UNL1        0.1046
     53 C          58.5745   88.9512    6.9357 C.3     1  UNL1        0.1177
     54 C          59.0233   90.0199    5.9837 C.ar    1  UNL1       -0.0025
     55 C          60.4781   90.1622    5.6476 C.ar    1  UNL1       -0.0026
     56 C          60.9270   91.2309    4.6955 C.ar    1  UNL1       -0.0003
     57 C          59.9209   92.1574    4.0796 C.ar    1  UNL1       -0.0000
     58 C          58.4659   92.0151    4.4157 C.ar    1  UNL1       -0.0003
     59 C          58.0171   90.9464    5.3677 C.ar    1  UNL1       -0.0026
@<TRIPOS>BOND
     1    18    19    2
     2    19    17    1
     3    17     1    1
     4     1     2    1
     5     2     3    1
     6     3     4    2
     7     3     5   am
     8     5     6    1
     9     6    20    1
    10    20    21    1
    11    21    22   ar
    12    22    23   ar
    13    23    24   ar
    14    24    25    1
    15    24    26   ar
    16    26    27   ar
    17     6     7    1
    18     7     8    2
    19     7     9   am
    20     9    29    1
    21    29    30    1
    22    30    31   ar
    23    31    32   ar
    24    32    33   ar
    25    33    34   ar
    26    34    35   ar
    27    35    40    1
    28    40    41    2
    29    40    42   am
    30    42    44    1
    31    44    45    1
    32    45    46    1
    33    46    47    1
    34    47    48    1
    35    48    49    1
    36    49    50    1
    37    50    51    1
    38    51    52    1
    39    35    36   ar
    40    36    37   ar
    41    37    38    1
    42    37    39   ar
    43     9    10    1
    44    11    10    1
    45    11    12    1
    46    12    13   am
    47    13    14    2
    48    13    15   am
    49    15    53    1
    50    53    54    1
    51    54    55   ar
    52    55    56   ar
    53    56    57   ar
    54    57    58   ar
    55    58    59   ar
    56    12     1    1
    57    59    54   ar
    58    11     5    1
    59    27    21   ar
    60    39    30   ar
    61    39    34   ar
    62    52    47    1
    63    25    28    1
    64    42    43    1
    65    15    16    1
@<TRIPOS>MOLECULE
*****
 59 65 0 0 0
SMALL
GASTEIGER

@<TRIPOS>ATOM
      1 N          65.4120   89.1946   14.5826 N.3     1  UNL1       -0.1862
      2 C          65.6024   87.9399   15.3822 C.3     1  UNL1        0.1775
      3 C          64.8376   86.6998   15.0254 C.2     1  UNL1        0.2452
      4 O          65.0280   85.4450   15.8251 O.2     1  UNL1       -0.2732
      5 N          63.8824   86.7144   13.8689 N.am    1  UNL1       -0.2541
      6 C          63.1177   85.4744   13.5121 C.3     1  UNL1        0.1577
      7 C          62.1625   85.4890   12.3556 C.2     1  UNL1        0.2445
      8 O          61.3977   84.2489   11.9988 O.2     1  UNL1       -0.2731
      9 N          61.9721   86.7437   11.5559 N.am    1  UNL1       -0.2705
     10 C          62.7369   87.9838   11.9128 C.3     1  UNL1        0.1359
     11 C          63.6921   87.9691   13.0693 C.3     1  UNL1        0.1908
     12 N          64.4569   89.2092   13.4261 N.am    1  UNL1       -0.1863
     13 C          64.2665   90.4639   12.6264 C.2     1  UNL1        0.3191
     14 O          63.3113   90.4786   11.4700 O.2     1  UNL1       -0.2512
     15 N          65.0313   91.7040   12.9833 N.am    1  UNL1       -0.2836
     16 H          65.6582   91.6944   13.7423 H       1  UNL1        0.1513
     17 C          66.1768   90.4346   14.9394 C.3     1  UNL1        0.1188
     18 C          66.3005   92.7335   16.1435 C.2     1  UNL1       -0.0034
     19 C          65.5342   91.4954   15.7831 C.2     1  UNL1       -0.0071
     20 C          63.3080   84.2197   14.3117 C.3     1  UNL1        0.0556
     21 C          63.1266   82.8806   13.6606 C.ar    1  UNL1       -0.0198
     22 C          62.2048   81.8678   14.2726 C.ar    1  UNL1       -0.0011
     23 C          62.0234   80.5287   13.6216 C.ar    1  UNL1        0.0363
     24 C          62.7637   80.2024   12.3585 C.ar    1  UNL1        0.1337
     25 O          62.5822   78.8633   11.7074 O.3     1  UNL1       -0.5055
     26 C          63.6855   81.2152   11.7464 C.ar    1  UNL1        0.0363
     27 C          63.8669   82.5543   12.3975 C.ar    1  UNL1       -0.0011
     28 H          62.0064   78.2306   12.0897 H       1  UNL1        0.2922
     29 C          61.0170   86.7584   10.3995 C.3     1  UNL1        0.1217
     30 C          60.4663   88.0604    9.8980 C.ar    1  UNL1        0.0135
     31 C          60.2773   89.2089   10.8441 C.ar    1  UNL1       -0.0012
     32 C          59.7266   90.5109   10.3426 C.ar    1  UNL1       -0.0002
     33 C          59.3650   90.6644    8.8950 C.ar    1  UNL1        0.0016
     34 C          59.5540   89.5159    7.9489 C.ar    1  UNL1        0.0214
     35 C          59.2891   89.3719    6.4795 C.ar    1  UNL1        0.0719
     36 C          59.6760   87.9809    6.0729 C.ar    1  UNL1        0.0805
     37 N          60.1800   87.2653    7.2909 N.ar    1  UNL1       -0.3241
     38 C          60.6730   85.8495    7.3408 C.3     1  UNL1        0.1305
     39 C          60.1047   88.2139    8.4503 C.ar    1  UNL1        0.0577
     40 C          58.7346   90.4328    5.5755 C.2     1  UNL1        0.2473
     41 O          57.2509   90.6244    5.4659 O.2     1  UNL1       -0.2701
     42 N          59.6637   91.3020    4.7810 N.am    1  UNL1       -0.3008
     43 H          60.6375   91.1762    4.8529 H       1  UNL1        0.1497
     44 C          59.1093   92.3628    3.8770 C.3     1  UNL1        0.0911
     45 C          60.0240   93.1212    2.9615 C.3     1  UNL1        0.0386
     46 C          60.0066   92.8459    1.4872 C.3     1  UNL1        0.0740
     47 N          59.2147   93.7285    0.5686 N.3     1  UNL1       -0.2684
     48 C          59.5079   95.1981    0.5032 C.3     1  UNL1        0.1046
     49 C          58.7160   96.0808   -0.4154 C.3     1  UNL1        0.1595
     50 O          57.6308   95.4939   -1.2685 O.3     1  UNL1       -0.3508
     51 C          57.3375   94.0243   -1.2031 C.3     1  UNL1        0.1595
     52 C          58.1294   93.1416   -0.2845 C.3     1  UNL1        0.1046
     53 C          64.8409   92.9587   12.1837 C.3     1  UNL1        0.1177
     54 C          65.8748   93.3715   11.1784 C.ar    1  UNL1       -0.0025
     55 C          65.9094   94.7841   10.6749 C.ar    1  UNL1       -0.0026
     56 C          66.9433   95.1969    9.6696 C.ar    1  UNL1       -0.0003
     57 C          67.9427   94.1972    9.1678 C.ar    1  UNL1       -0.0000
     58 C          67.9081   92.7845    9.6712 C.ar    1  UNL1       -0.0003
     59 C          66.8742   92.3717   10.6765 C.ar    1  UNL1       -0.0026
@<TRIPOS>BOND
     1    18    19    2
     2    19    17    1
     3    17     1    1
     4     1     2    1
     5     2     3    1
     6     3     4    2
     7     3     5   am
     8     5     6    1
     9     6    20    1
    10    20    21    1
    11    21    22   ar
    12    22    23   ar
    13    23    24   ar
    14    24    25    1
    15    24    26   ar
    16    26    27   ar
    17     6     7    1
    18     7     8    2
    19     7     9   am
    20     9    29    1
    21    29    30    1
    22    30    31   ar
    23    31    32   ar
    24    32    33   ar
    25    33    34   ar
    26    34    35   ar
    27    35    40    1
    28    40    41    2
    29    40    42   am
    30    42    44    1
    31    44    45    1
    32    45    46    1
    33    46    47    1
    34    47    48    1
    35    48    49    1
    36    49    50    1
    37    50    51    1
    38    51    52    1
    39    35    36   ar
    40    36    37   ar
    41    37    38    1
    42    37    39   ar
    43     9    10    1
    44    11    10    1
    45    11    12    1
    46    12    13   am
    47    13    14    2
    48    13    15   am
    49    15    53    1
    50    53    54    1
    51    54    55   ar
    52    55    56   ar
    53    56    57   ar
    54    57    58   ar
    55    58    59   ar
    56    12     1    1
    57    59    54   ar
    58    11     5    1
    59    27    21   ar
    60    39    30   ar
    61    39    34   ar
    62    52    47    1
    63    25    28    1
    64    42    43    1
    65    15    16    1
