@<TRIPOS>MOLECULE
*****
 32 35 0 0 0
SMALL
GASTEIGER

@<TRIPOS>ATOM
      1 C          62.5546   88.2500   11.5733 C.3     1  UNL1        0.1532
      2 C          66.2259   92.5968   15.4304 C.3     1  UNL1        0.0897
      3 N          65.4284   91.8583   14.3965 N.3     1  UNL1       -0.2686
      4 C          64.9471   90.4652   14.6747 C.3     1  UNL1        0.0939
      5 C          64.1496   89.7267   13.6409 C.3     1  UNL1        0.1108
      6 N          63.8334   90.3815   12.3289 N.am    1  UNL1       -0.2753
      7 C          63.0359   89.6432   11.2951 C.2     1  UNL1        0.2439
      8 O          62.7197   90.2980    9.9831 O.2     1  UNL1       -0.2731
      9 C          64.3147   91.7748   12.0508 C.3     1  UNL1        0.1108
     10 C          65.1122   92.5131   13.0846 C.3     1  UNL1        0.0939
     11 N          63.4328   87.2875   12.3166 N.am    1  UNL1       -0.2978
     12 C          62.8973   85.9483   12.7286 C.2     1  UNL1        0.2257
     13 O          61.4836   85.5716   12.3973 O.2     1  UNL1       -0.2748
     14 H          64.3606   87.5348   12.5340 H       1  UNL1        0.1498
     15 C          63.7754   84.9858   13.4719 C.3     1  UNL1        0.0884
     16 C          64.7197   84.4498   14.5068 C.3     1  UNL1        0.0135
     17 C          64.2710   85.8798   14.5696 C.3     1  UNL1        0.0135
     18 C          63.5846   83.7575   12.6323 C.ar    1  UNL1       -0.0040
     19 C          64.2283   83.6656   11.2806 C.ar    1  UNL1       -0.0021
     20 C          64.0377   82.4374   10.4409 C.ar    1  UNL1        0.0111
     21 C          63.2031   81.3009   10.9530 C.ar    1  UNL1        0.0585
     22 CL         63.0125   80.0727   10.1134 Cl      1  UNL1       -0.0822
     23 C          62.5594   81.3928   12.3047 C.ar    1  UNL1        0.0225
     24 C          62.7502   82.6211   13.1444 C.ar    1  UNL1        0.0550
     25 CL         62.1064   82.7130   14.4961 Cl      1  UNL1       -0.0825
     26 C          61.1951   87.8193   11.1082 C.3     1  UNL1        0.0553
     27 C          61.0436   87.0941    9.8039 C.ar    1  UNL1       -0.0200
     28 C          59.7321   87.1248    9.0766 C.ar    1  UNL1       -0.0042
     29 C          59.5806   86.3995    7.7723 C.ar    1  UNL1       -0.0003
     30 C          60.7406   85.6436    7.1953 C.ar    1  UNL1       -0.0000
     31 C          62.0522   85.6129    7.9227 C.ar    1  UNL1       -0.0003
     32 C          62.2036   86.3381    9.2269 C.ar    1  UNL1       -0.0042
@<TRIPOS>BOND
     1     2     3    1
     2     3     4    1
     3     4     5    1
     4     5     6    1
     5     6     7   am
     6     7     8    2
     7     7     1    1
     8     1    26    1
     9    26    27    1
    10    27    28   ar
    11    28    29   ar
    12    29    30   ar
    13    30    31   ar
    14    31    32   ar
    15     1    11    1
    16    11    12   am
    17    12    13    2
    18    12    15    1
    19    15    18    1
    20    18    19   ar
    21    19    20   ar
    22    20    21   ar
    23    21    22    1
    24    21    23   ar
    25    23    24   ar
    26    24    25    1
    27    15    16    1
    28    16    17    1
    29     6     9    1
    30     9    10    1
    31    10     3    1
    32    32    27   ar
    33    17    15    1
    34    24    18   ar
    35    11    14    1
@<TRIPOS>MOLECULE
*****
 32 35 0 0 0
SMALL
GASTEIGER

@<TRIPOS>ATOM
      1 C          62.4498   88.3605   11.6264 C.3     1  UNL1        0.1532
      2 C          61.8631   84.4091    6.0324 C.3     1  UNL1        0.0897
      3 N          61.7064   85.2683    7.2520 N.3     1  UNL1       -0.2686
      4 C          62.9199   85.7829    7.9679 C.3     1  UNL1        0.0939
      5 C          62.7632   86.6421    9.1875 C.3     1  UNL1        0.1108
      6 N          61.3930   86.9868    9.6910 N.am    1  UNL1       -0.2753
      7 C          61.2362   87.8460   10.9105 C.2     1  UNL1        0.2439
      8 O          59.8660   88.1906   11.4141 O.2     1  UNL1       -0.2731
      9 C          60.1794   86.4722    8.9751 C.3     1  UNL1        0.1108
     10 C          60.3361   85.6130    7.7556 C.3     1  UNL1        0.0939
     11 N          63.3555   87.4069   12.3480 N.am    1  UNL1       -0.2978
     12 C          62.8735   86.0283   12.6901 C.2     1  UNL1        0.2257
     13 O          61.4859   85.6031   12.3106 O.2     1  UNL1       -0.2748
     14 H          64.2661   87.6860   12.5970 H       1  UNL1        0.1498
     15 C          63.7791   85.0747   13.4116 C.3     1  UNL1        0.0884
     16 C          64.7542   84.5485   14.4228 C.3     1  UNL1        0.0135
     17 C          64.2935   85.9741   14.4962 C.3     1  UNL1        0.0135
     18 C          63.5793   83.8441   12.5775 C.ar    1  UNL1       -0.0040
     19 C          64.2108   83.7471   11.2204 C.ar    1  UNL1       -0.0021
     20 C          64.0110   82.5166   10.3863 C.ar    1  UNL1        0.0111
     21 C          63.1795   81.3828   10.9094 C.ar    1  UNL1        0.0585
     22 CL         62.9797   80.1523   10.0753 Cl      1  UNL1       -0.0822
     23 C          62.5480   81.4798   12.2665 C.ar    1  UNL1        0.0225
     24 C          62.7479   82.7104   13.1006 C.ar    1  UNL1        0.0550
     25 CL         62.1164   82.8074   14.4577 Cl      1  UNL1       -0.0825
     26 C          62.7577   89.8285   11.6209 C.3     1  UNL1        0.0553
     27 C          63.6177   90.4186   12.6990 C.ar    1  UNL1       -0.0200
     28 C          64.6862   91.4107   12.3472 C.ar    1  UNL1       -0.0042
     29 C          65.5462   92.0007   13.4253 C.ar    1  UNL1       -0.0003
     30 C          65.3376   91.5986   14.8553 C.ar    1  UNL1       -0.0000
     31 C          64.2689   90.6064   15.2071 C.ar    1  UNL1       -0.0003
     32 C          63.4090   90.0164   14.1290 C.ar    1  UNL1       -0.0042
@<TRIPOS>BOND
     1     2     3    1
     2     3     4    1
     3     4     5    1
     4     5     6    1
     5     6     7   am
     6     7     8    2
     7     7     1    1
     8     1    26    1
     9    26    27    1
    10    27    28   ar
    11    28    29   ar
    12    29    30   ar
    13    30    31   ar
    14    31    32   ar
    15     1    11    1
    16    11    12   am
    17    12    13    2
    18    12    15    1
    19    15    18    1
    20    18    19   ar
    21    19    20   ar
    22    20    21   ar
    23    21    22    1
    24    21    23   ar
    25    23    24   ar
    26    24    25    1
    27    15    16    1
    28    16    17    1
    29     6     9    1
    30     9    10    1
    31    10     3    1
    32    32    27   ar
    33    17    15    1
    34    24    18   ar
    35    11    14    1
@<TRIPOS>MOLECULE
*****
 32 35 0 0 0
SMALL
GASTEIGER

@<TRIPOS>ATOM
      1 C          63.7050   89.9745   13.2207 C.3     1  UNL1        0.1532
      2 C          68.5577   94.0491   15.8853 C.3     1  UNL1        0.0897
      3 N          67.4812   93.3590   15.1010 N.3     1  UNL1       -0.2686
      4 C          66.9345   92.0445   15.5735 C.3     1  UNL1        0.0939
      5 C          65.8580   91.3545   14.7892 C.3     1  UNL1        0.1108
      6 N          65.3282   91.9790   13.5325 N.am    1  UNL1       -0.2753
      7 C          64.2517   91.2890   12.7482 C.2     1  UNL1        0.2439
      8 O          63.7219   91.9135   11.4915 O.2     1  UNL1       -0.2731
      9 C          65.8749   93.2935   13.0600 C.3     1  UNL1        0.1108
     10 C          66.9514   93.9835   13.8443 C.3     1  UNL1        0.0939
     11 N          62.2579   89.6431   13.0055 N.am    1  UNL1       -0.2978
     12 C          61.7746   89.2439   11.6428 C.2     1  UNL1        0.2257
     13 O          62.7383   89.1760   10.4953 O.2     1  UNL1       -0.2748
     14 H          61.6255   89.6877   13.7586 H       1  UNL1        0.1498
     15 C          60.3276   88.9125   11.4276 C.3     1  UNL1        0.0884
     16 C          58.8393   88.9094   11.6147 C.3     1  UNL1        0.0135
     17 C          59.7062   89.7427   12.5113 C.3     1  UNL1        0.0135
     18 C          60.4465   87.9671   10.2690 C.ar    1  UNL1       -0.0040
     19 C          59.9313   88.3674    8.9184 C.ar    1  UNL1       -0.0021
     20 C          60.0501   87.4221    7.7599 C.ar    1  UNL1        0.0111
     21 C          60.6842   86.0763    7.9521 C.ar    1  UNL1        0.0585
     22 CL         60.8030   85.1310    6.7935 Cl      1  UNL1       -0.0822
     23 C          61.1994   85.6759    9.3027 C.ar    1  UNL1        0.0225
     24 C          61.0805   86.6213   10.4612 C.ar    1  UNL1        0.0550
     25 CL         61.5957   86.2210   11.8118 Cl      1  UNL1       -0.0825
     26 C          64.6053   88.9914   13.9084 C.3     1  UNL1        0.0553
     27 C          64.0713   88.1335   15.0169 C.ar    1  UNL1       -0.0200
     28 C          63.3742   88.7655   16.1850 C.ar    1  UNL1       -0.0042
     29 C          62.8402   87.9075   17.2936 C.ar    1  UNL1       -0.0003
     30 C          63.0033   86.4176   17.2340 C.ar    1  UNL1       -0.0000
     31 C          63.7005   85.7857   16.0658 C.ar    1  UNL1       -0.0003
     32 C          64.2345   86.6436   14.9573 C.ar    1  UNL1       -0.0042
@<TRIPOS>BOND
     1     2     3    1
     2     3     4    1
     3     4     5    1
     4     5     6    1
     5     6     7   am
     6     7     8    2
     7     7     1    1
     8     1    26    1
     9    26    27    1
    10    27    28   ar
    11    28    29   ar
    12    29    30   ar
    13    30    31   ar
    14    31    32   ar
    15     1    11    1
    16    11    12   am
    17    12    13    2
    18    12    15    1
    19    15    18    1
    20    18    19   ar
    21    19    20   ar
    22    20    21   ar
    23    21    22    1
    24    21    23   ar
    25    23    24   ar
    26    24    25    1
    27    15    16    1
    28    16    17    1
    29     6     9    1
    30     9    10    1
    31    10     3    1
    32    32    27   ar
    33    17    15    1
    34    24    18   ar
    35    11    14    1
@<TRIPOS>MOLECULE
*****
 32 35 0 0 0
SMALL
GASTEIGER

@<TRIPOS>ATOM
      1 C          63.8357   90.4444   14.0544 C.3     1  UNL1        0.1532
      2 C          64.1118   83.7092   15.4005 C.3     1  UNL1        0.0897
      3 N          63.9526   85.2006   15.3728 N.3     1  UNL1       -0.2686
      4 C          64.3134   85.9706   14.1372 C.3     1  UNL1        0.0939
      5 C          64.1542   87.4619   14.1096 C.3     1  UNL1        0.1108
      6 N          63.6341   88.1831   15.3176 N.am    1  UNL1       -0.2753
      7 C          63.4749   89.6744   15.2901 C.2     1  UNL1        0.2439
      8 O          62.9548   90.3956   16.4981 O.2     1  UNL1       -0.2731
      9 C          63.2733   87.4130   16.5533 C.3     1  UNL1        0.1108
     10 C          63.4325   85.9218   16.5809 C.3     1  UNL1        0.0939
     11 N          65.2578   90.8585   13.8173 N.am    1  UNL1       -0.2978
     12 C          65.8635   91.9620   14.6330 C.2     1  UNL1        0.2257
     13 O          65.0471   92.6514   15.6858 O.2     1  UNL1       -0.2748
     14 H          65.7936   90.4061   13.1263 H       1  UNL1        0.1498
     15 C          67.2855   92.3762   14.3959 C.3     1  UNL1        0.0884
     16 C          68.7488   92.5976   14.6410 C.3     1  UNL1        0.0135
     17 C          67.8978   91.9650   15.7020 C.3     1  UNL1        0.0135
     18 C          67.1671   92.9312   13.0074 C.ar    1  UNL1       -0.0040
     19 C          66.3063   94.1324   12.7507 C.ar    1  UNL1       -0.0021
     20 C          66.1878   94.6875   11.3623 C.ar    1  UNL1        0.0111
     21 C          66.9303   94.0412   10.2303 C.ar    1  UNL1        0.0585
     22 CL         66.8119   94.5962    8.8419 Cl      1  UNL1       -0.0822
     23 C          67.7912   92.8399   10.4870 C.ar    1  UNL1        0.0225
     24 C          67.9096   92.2849   11.8755 C.ar    1  UNL1        0.0550
     25 CL         68.7704   91.0837   12.1322 Cl      1  UNL1       -0.0825
     26 C          62.7744   90.8003   13.0559 C.3     1  UNL1        0.0553
     27 C          62.0749   89.7187   12.2871 C.ar    1  UNL1       -0.0200
     28 C          62.8743   88.6791   11.5590 C.ar    1  UNL1       -0.0042
     29 C          62.1748   87.5975   10.7903 C.ar    1  UNL1       -0.0003
     30 C          60.6760   87.5556   10.7497 C.ar    1  UNL1       -0.0000
     31 C          59.8766   88.5953   11.4778 C.ar    1  UNL1       -0.0003
     32 C          60.5761   89.6768   12.2465 C.ar    1  UNL1       -0.0042
@<TRIPOS>BOND
     1     2     3    1
     2     3     4    1
     3     4     5    1
     4     5     6    1
     5     6     7   am
     6     7     8    2
     7     7     1    1
     8     1    26    1
     9    26    27    1
    10    27    28   ar
    11    28    29   ar
    12    29    30   ar
    13    30    31   ar
    14    31    32   ar
    15     1    11    1
    16    11    12   am
    17    12    13    2
    18    12    15    1
    19    15    18    1
    20    18    19   ar
    21    19    20   ar
    22    20    21   ar
    23    21    22    1
    24    21    23   ar
    25    23    24   ar
    26    24    25    1
    27    15    16    1
    28    16    17    1
    29     6     9    1
    30     9    10    1
    31    10     3    1
    32    32    27   ar
    33    17    15    1
    34    24    18   ar
    35    11    14    1
@<TRIPOS>MOLECULE
*****
 32 35 0 0 0
SMALL
GASTEIGER

@<TRIPOS>ATOM
      1 C          62.0431   87.8788   11.6120 C.3     1  UNL1        0.1532
      2 C          65.5771   92.3485   15.4568 C.3     1  UNL1        0.0897
      3 N          64.8797   91.5426   14.4012 N.3     1  UNL1       -0.2686
      4 C          64.1352   90.2964   14.7787 C.3     1  UNL1        0.0939
      5 C          63.4378   89.4904   13.7231 C.3     1  UNL1        0.1108
      6 N          63.4850   89.9308   12.2900 N.am    1  UNL1       -0.2753
      7 C          62.7877   89.1249   11.2344 C.2     1  UNL1        0.2439
      8 O          62.8349   89.5653    9.8013 O.2     1  UNL1       -0.2731
      9 C          64.2296   91.1771   11.9125 C.3     1  UNL1        0.1108
     10 C          64.9269   91.9829   12.9680 C.3     1  UNL1        0.0939
     11 N          62.7403   86.7899   12.3726 N.am    1  UNL1       -0.2978
     12 C          63.0427   85.4824   11.7026 C.2     1  UNL1        0.2257
     13 O          62.6480   85.2637   10.2720 O.2     1  UNL1       -0.2748
     14 H          62.9993   86.9334   13.3115 H       1  UNL1        0.1498
     15 C          63.7398   84.3935   12.4631 C.3     1  UNL1        0.0884
     16 C          64.5095   83.1353   12.7364 C.3     1  UNL1        0.0135
     17 C          64.1908   83.5279   11.3242 C.3     1  UNL1        0.0135
     18 C          63.5309   84.8810   13.8663 C.ar    1  UNL1       -0.0040
     19 C          64.3274   86.0422   14.3832 C.ar    1  UNL1       -0.0021
     20 C          64.1186   86.5297   15.7863 C.ar    1  UNL1        0.0111
     21 C          63.1131   85.8560   16.6725 C.ar    1  UNL1        0.0585
     22 CL         62.9043   86.3436   18.0755 Cl      1  UNL1       -0.0822
     23 C          62.3166   84.6949   16.1556 C.ar    1  UNL1        0.0225
     24 C          62.5255   84.2074   14.7524 C.ar    1  UNL1        0.0550
     25 CL         61.7290   83.0462   14.2355 Cl      1  UNL1       -0.0825
     26 C          60.6014   87.7213   11.2290 C.3     1  UNL1        0.0553
     27 C          60.2067   87.7105    9.7818 C.ar    1  UNL1       -0.0200
     28 C          60.1283   86.4118    9.0355 C.ar    1  UNL1       -0.0042
     29 C          59.7337   86.4010    7.5883 C.ar    1  UNL1       -0.0003
     30 C          59.4174   87.6890    6.8876 C.ar    1  UNL1       -0.0000
     31 C          59.4957   88.9878    7.6340 C.ar    1  UNL1       -0.0003
     32 C          59.8904   88.9985    9.0811 C.ar    1  UNL1       -0.0042
@<TRIPOS>BOND
     1     2     3    1
     2     3     4    1
     3     4     5    1
     4     5     6    1
     5     6     7   am
     6     7     8    2
     7     7     1    1
     8     1    26    1
     9    26    27    1
    10    27    28   ar
    11    28    29   ar
    12    29    30   ar
    13    30    31   ar
    14    31    32   ar
    15     1    11    1
    16    11    12   am
    17    12    13    2
    18    12    15    1
    19    15    18    1
    20    18    19   ar
    21    19    20   ar
    22    20    21   ar
    23    21    22    1
    24    21    23   ar
    25    23    24   ar
    26    24    25    1
    27    15    16    1
    28    16    17    1
    29     6     9    1
    30     9    10    1
    31    10     3    1
    32    32    27   ar
    33    17    15    1
    34    24    18   ar
    35    11    14    1
@<TRIPOS>MOLECULE
*****
 32 35 0 0 0
SMALL
GASTEIGER

@<TRIPOS>ATOM
      1 C          63.9482   86.0714   13.4771 C.3     1  UNL1        0.1532
      2 C          63.8560   92.0596   16.8510 C.3     1  UNL1        0.0897
      3 N          63.7592   90.6482   16.3523 N.3     1  UNL1       -0.2686
      4 C          64.2389   90.3055   14.9730 C.3     1  UNL1        0.0939
      5 C          64.1420   88.8941   14.4743 C.3     1  UNL1        0.1108
      6 N          63.5654   87.8254   15.3550 N.am    1  UNL1       -0.2753
      7 C          63.4685   86.4141   14.8563 C.2     1  UNL1        0.2439
      8 O          62.8920   85.3454   15.7370 O.2     1  UNL1       -0.2731
      9 C          63.0857   88.1682   16.7343 C.3     1  UNL1        0.1108
     10 C          63.1826   89.5795   17.2329 C.3     1  UNL1        0.0939
     11 N          63.6809   87.0075   12.3359 N.am    1  UNL1       -0.2978
     12 C          62.3998   86.9011   11.5629 C.2     1  UNL1        0.2257
     13 O          61.3861   85.8586   11.9311 O.2     1  UNL1       -0.2748
     14 H          64.3463   87.6917   12.0942 H       1  UNL1        0.1498
     15 C          62.1325   87.8372   10.4217 C.3     1  UNL1        0.0884
     16 C          61.9329   89.1173    9.6657 C.3     1  UNL1        0.0135
     17 C          62.2348   89.1529   11.1346 C.3     1  UNL1        0.0135
     18 C          61.9374   86.8464    9.3124 C.ar    1  UNL1       -0.0040
     19 C          63.0925   86.0161    8.8367 C.ar    1  UNL1       -0.0021
     20 C          62.8975   85.0254    7.7275 C.ar    1  UNL1        0.0111
     21 C          61.5472   84.8650    7.0939 C.ar    1  UNL1        0.0585
     22 CL         61.3522   83.8743    5.9847 Cl      1  UNL1       -0.0822
     23 C          60.3922   85.6954    7.5696 C.ar    1  UNL1        0.0225
     24 C          60.5873   86.6861    8.6789 C.ar    1  UNL1        0.0550
     25 CL         59.4322   87.5164    9.1546 Cl      1  UNL1       -0.0825
     26 C          64.6952   84.7926   13.2390 C.3     1  UNL1        0.0553
     27 C          64.0227   83.6509   12.5358 C.ar    1  UNL1       -0.0200
     28 C          64.4001   83.3126   11.1241 C.ar    1  UNL1       -0.0042
     29 C          63.7276   82.1709   10.4210 C.ar    1  UNL1       -0.0003
     30 C          62.6776   81.3676   11.1297 C.ar    1  UNL1       -0.0000
     31 C          62.3002   81.7060   12.5415 C.ar    1  UNL1       -0.0003
     32 C          62.9727   82.8476   13.2445 C.ar    1  UNL1       -0.0042
@<TRIPOS>BOND
     1     2     3    1
     2     3     4    1
     3     4     5    1
     4     5     6    1
     5     6     7   am
     6     7     8    2
     7     7     1    1
     8     1    26    1
     9    26    27    1
    10    27    28   ar
    11    28    29   ar
    12    29    30   ar
    13    30    31   ar
    14    31    32   ar
    15     1    11    1
    16    11    12   am
    17    12    13    2
    18    12    15    1
    19    15    18    1
    20    18    19   ar
    21    19    20   ar
    22    20    21   ar
    23    21    22    1
    24    21    23   ar
    25    23    24   ar
    26    24    25    1
    27    15    16    1
    28    16    17    1
    29     6     9    1
    30     9    10    1
    31    10     3    1
    32    32    27   ar
    33    17    15    1
    34    24    18   ar
    35    11    14    1
@<TRIPOS>MOLECULE
*****
 32 35 0 0 0
SMALL
GASTEIGER

@<TRIPOS>ATOM
      1 C          63.1582   90.2134   13.7683 C.3     1  UNL1        0.1532
      2 C          68.5553   93.9965   15.7200 C.3     1  UNL1        0.0897
      3 N          67.3984   93.3161   15.0501 N.3     1  UNL1       -0.2686
      4 C          66.6287   92.2543   15.7782 C.3     1  UNL1        0.0939
      5 C          65.4718   91.5740   15.1082 C.3     1  UNL1        0.1108
      6 N          65.0847   91.9555   13.7101 N.am    1  UNL1       -0.2753
      7 C          63.9278   91.2752   13.0402 C.2     1  UNL1        0.2439
      8 O          63.5407   91.6567   11.6421 O.2     1  UNL1       -0.2731
      9 C          65.8544   93.0173   12.9820 C.3     1  UNL1        0.1108
     10 C          67.0112   93.6976   13.6520 C.3     1  UNL1        0.0939
     11 N          62.0446   89.4857   13.0751 N.am    1  UNL1       -0.2978
     12 C          62.3343   88.6513   11.8627 C.2     1  UNL1        0.2257
     13 O          63.7375   88.5447   11.3434 O.2     1  UNL1       -0.2748
     14 H          61.1236   89.5557   13.4158 H       1  UNL1        0.1498
     15 C          61.2208   87.9237   11.1695 C.3     1  UNL1        0.0884
     16 C          59.8822   87.6607   10.5455 C.3     1  UNL1        0.0135
     17 C          60.1863   89.0091   11.1281 C.3     1  UNL1        0.0135
     18 C          61.8685   86.5855   10.9700 C.ar    1  UNL1       -0.0040
     19 C          62.1684   85.7136   12.1532 C.ar    1  UNL1       -0.0021
     20 C          62.8161   84.3755   11.9539 C.ar    1  UNL1        0.0111
     21 C          63.1640   83.9092   10.5712 C.ar    1  UNL1        0.0585
     22 CL         63.8118   82.5711   10.3719 Cl      1  UNL1       -0.0822
     23 C          62.8642   84.7811    9.3881 C.ar    1  UNL1        0.0225
     24 C          62.2164   86.1192    9.5875 C.ar    1  UNL1        0.0550
     25 CL         61.9166   86.9911    8.4043 Cl      1  UNL1       -0.0825
     26 C          63.5020   89.8792   15.1896 C.3     1  UNL1        0.0553
     27 C          63.5796   88.4459   15.6253 C.ar    1  UNL1       -0.0200
     28 C          62.9340   88.0164   16.9093 C.ar    1  UNL1       -0.0042
     29 C          63.0115   86.5832   17.3451 C.ar    1  UNL1       -0.0003
     30 C          63.7348   85.5795   16.4968 C.ar    1  UNL1       -0.0000
     31 C          64.3804   86.0091   15.2128 C.ar    1  UNL1       -0.0003
     32 C          64.3028   87.4423   14.7771 C.ar    1  UNL1       -0.0042
@<TRIPOS>BOND
     1     2     3    1
     2     3     4    1
     3     4     5    1
     4     5     6    1
     5     6     7   am
     6     7     8    2
     7     7     1    1
     8     1    26    1
     9    26    27    1
    10    27    28   ar
    11    28    29   ar
    12    29    30   ar
    13    30    31   ar
    14    31    32   ar
    15     1    11    1
    16    11    12   am
    17    12    13    2
    18    12    15    1
    19    15    18    1
    20    18    19   ar
    21    19    20   ar
    22    20    21   ar
    23    21    22    1
    24    21    23   ar
    25    23    24   ar
    26    24    25    1
    27    15    16    1
    28    16    17    1
    29     6     9    1
    30     9    10    1
    31    10     3    1
    32    32    27   ar
    33    17    15    1
    34    24    18   ar
    35    11    14    1
@<TRIPOS>MOLECULE
*****
 32 35 0 0 0
SMALL
GASTEIGER

@<TRIPOS>ATOM
      1 C          62.6725   86.9428   11.9616 C.3     1  UNL1        0.1532
      2 C          63.1385   80.3324   13.7877 C.3     1  UNL1        0.0897
      3 N          63.1735   81.8241   13.6341 N.3     1  UNL1       -0.2686
      4 C          62.5673   82.4677   12.4224 C.3     1  UNL1        0.0939
      5 C          62.6024   83.9595   12.2687 C.3     1  UNL1        0.1108
      6 N          63.2436   84.8075   13.3269 N.am    1  UNL1       -0.2753
      7 C          63.2787   86.2992   13.1733 C.2     1  UNL1        0.2439
      8 O          63.9199   87.1473   14.2314 O.2     1  UNL1       -0.2731
      9 C          63.8498   84.1638   14.5386 C.3     1  UNL1        0.1108
     10 C          63.8148   82.6722   14.6922 C.3     1  UNL1        0.0939
     11 N          63.2520   88.2157   11.4193 N.am    1  UNL1       -0.2978
     12 C          62.7470   89.5394   11.9121 C.2     1  UNL1        0.2257
     13 O          61.6625   89.5902   12.9471 O.2     1  UNL1       -0.2748
     14 H          63.9638   88.1824   10.7400 H       1  UNL1        0.1498
     15 C          63.3265   90.8122   11.3699 C.3     1  UNL1        0.0884
     16 C          63.5989   91.9488   10.4295 C.3     1  UNL1        0.0135
     17 C          62.6435   90.8616   10.0353 C.3     1  UNL1        0.0135
     18 C          64.2108   91.2049   12.5161 C.ar    1  UNL1       -0.0040
     19 C          63.8295   90.8342   13.9187 C.ar    1  UNL1       -0.0021
     20 C          64.7137   91.2268   15.0650 C.ar    1  UNL1        0.0111
     21 C          65.9793   91.9903   14.8086 C.ar    1  UNL1        0.0585
     22 CL         66.8635   92.3829   15.9549 Cl      1  UNL1       -0.0822
     23 C          66.3605   92.3610   13.4061 C.ar    1  UNL1        0.0225
     24 C          65.4762   91.9683   12.2598 C.ar    1  UNL1        0.0550
     25 CL         65.8575   92.3391   10.8573 Cl      1  UNL1       -0.0825
     26 C          61.4868   86.3137   11.2921 C.3     1  UNL1        0.0553
     27 C          61.5463   85.9644    9.8345 C.ar    1  UNL1       -0.0200
     28 C          62.7800   85.3286    9.2654 C.ar    1  UNL1       -0.0042
     29 C          62.8395   84.9793    7.8078 C.ar    1  UNL1       -0.0003
     30 C          61.6653   85.2658    6.9194 C.ar    1  UNL1       -0.0000
     31 C          60.4316   85.9015    7.4886 C.ar    1  UNL1       -0.0003
     32 C          60.3721   86.2508    8.9461 C.ar    1  UNL1       -0.0042
@<TRIPOS>BOND
     1     2     3    1
     2     3     4    1
     3     4     5    1
     4     5     6    1
     5     6     7   am
     6     7     8    2
     7     7     1    1
     8     1    26    1
     9    26    27    1
    10    27    28   ar
    11    28    29   ar
    12    29    30   ar
    13    30    31   ar
    14    31    32   ar
    15     1    11    1
    16    11    12   am
    17    12    13    2
    18    12    15    1
    19    15    18    1
    20    18    19   ar
    21    19    20   ar
    22    20    21   ar
    23    21    22    1
    24    21    23   ar
    25    23    24   ar
    26    24    25    1
    27    15    16    1
    28    16    17    1
    29     6     9    1
    30     9    10    1
    31    10     3    1
    32    32    27   ar
    33    17    15    1
    34    24    18   ar
    35    11    14    1
@<TRIPOS>MOLECULE
*****
 32 35 0 0 0
SMALL
GASTEIGER

@<TRIPOS>ATOM
      1 C          62.1174   86.9057   11.5006 C.3     1  UNL1        0.1532
      2 C          61.6334   84.2364    5.1847 C.3     1  UNL1        0.0897
      3 N          61.4782   84.9204    6.5107 N.3     1  UNL1       -0.2686
      4 C          62.5831   84.8537    7.5229 C.3     1  UNL1        0.0939
      5 C          62.4279   85.5377    8.8489 C.3     1  UNL1        0.1108
      6 N          61.1677   86.2884    9.1625 N.am    1  UNL1       -0.2753
      7 C          61.0125   86.9724   10.4884 C.2     1  UNL1        0.2439
      8 O          59.7523   87.7231   10.8021 O.2     1  UNL1       -0.2731
      9 C          60.0628   86.3551    8.1502 C.3     1  UNL1        0.1108
     10 C          60.2180   85.6711    6.8244 C.3     1  UNL1        0.0939
     11 N          62.1256   85.8160   12.5314 N.am    1  UNL1       -0.2978
     12 C          62.8249   84.5198   12.2470 C.2     1  UNL1        0.2257
     13 O          63.5161   84.3134   10.9318 O.2     1  UNL1       -0.2748
     14 H          61.6719   85.9515   13.3946 H       1  UNL1        0.1498
     15 C          62.8331   83.4301   13.2777 C.3     1  UNL1        0.0884
     16 C          62.8219   82.0537   13.8739 C.3     1  UNL1        0.0135
     17 C          62.7802   82.2263   12.3845 C.3     1  UNL1        0.0135
     18 C          62.8889   84.2556   14.5290 C.ar    1  UNL1       -0.0040
     19 C          61.6292   84.5565   15.2857 C.ar    1  UNL1       -0.0021
     20 C          61.6849   85.3819   16.5369 C.ar    1  UNL1        0.0111
     21 C          63.0004   85.9064   17.0315 C.ar    1  UNL1        0.0585
     22 CL         63.0561   86.7318   18.2827 Cl      1  UNL1       -0.0822
     23 C          64.2601   85.6054   16.2747 C.ar    1  UNL1        0.0225
     24 C          64.2043   84.7800   15.0235 C.ar    1  UNL1        0.0550
     25 CL         65.4639   84.4790   14.2668 Cl      1  UNL1       -0.0825
     26 C          63.2143   87.9288   11.4821 C.3     1  UNL1        0.0553
     27 C          63.4558   88.7913   12.6854 C.ar    1  UNL1       -0.0200
     28 C          63.2701   90.2768   12.5927 C.ar    1  UNL1       -0.0042
     29 C          63.5116   91.1394   13.7960 C.ar    1  UNL1       -0.0003
     30 C          63.9388   90.5163   15.0919 C.ar    1  UNL1       -0.0000
     31 C          64.1245   89.0306   15.1845 C.ar    1  UNL1       -0.0003
     32 C          63.8830   88.1682   13.9812 C.ar    1  UNL1       -0.0042
@<TRIPOS>BOND
     1     2     3    1
     2     3     4    1
     3     4     5    1
     4     5     6    1
     5     6     7   am
     6     7     8    2
     7     7     1    1
     8     1    26    1
     9    26    27    1
    10    27    28   ar
    11    28    29   ar
    12    29    30   ar
    13    30    31   ar
    14    31    32   ar
    15     1    11    1
    16    11    12   am
    17    12    13    2
    18    12    15    1
    19    15    18    1
    20    18    19   ar
    21    19    20   ar
    22    20    21   ar
    23    21    22    1
    24    21    23   ar
    25    23    24   ar
    26    24    25    1
    27    15    16    1
    28    16    17    1
    29     6     9    1
    30     9    10    1
    31    10     3    1
    32    32    27   ar
    33    17    15    1
    34    24    18   ar
    35    11    14    1
