@<TRIPOS>MOLECULE
*****
 40 45 0 0 0
SMALL
GASTEIGER

@<TRIPOS>ATOM
      1 C          62.7472   81.4380   12.7133 C.ar    1  UNL1        0.2928
      2 C          62.7559   80.7814   11.3648 C.ar    1  UNL1        0.0754
      3 C          62.9660   81.6068   10.1300 C.ar    1  UNL1        0.0078
      4 C          63.1675   83.0888   10.2438 C.ar    1  UNL1        0.0176
      5 C          63.1588   83.7454   11.5924 C.ar    1  UNL1        0.0674
      6 C          62.9487   82.9200   12.8272 C.ar    1  UNL1        0.1042
      7 C          62.9896   83.8394   14.0117 C.ar    1  UNL1        0.1088
      8 N          62.8429   83.5876   15.4831 N.ar    1  UNL1       -0.2222
      9 C          62.9316   84.7293   16.4519 C.ar    1  UNL1        0.2001
     10 N          63.1671   86.1229   15.9493 N.ar    1  UNL1       -0.2075
     11 C          63.3137   86.3746   14.4779 C.ar    1  UNL1        0.1509
     12 C          63.2250   85.2329   13.5091 C.ar    1  UNL1        0.1101
     13 N          63.3296   85.1748   12.0139 N.ar    1  UNL1       -0.3233
     14 N          63.5492   87.7682   13.9753 N.pl3   1  UNL1       -0.2892
     15 C          64.5926   88.6317   14.6199 C.3     1  UNL1        0.1095
     16 C          64.8280   90.0253   14.1172 C.3     1  UNL1        0.0939
     17 N          64.0199   90.5553   12.9700 N.3     1  UNL1       -0.2695
     18 C          62.9764   89.6917   12.3254 C.3     1  UNL1        0.0939
     19 C          62.7411   88.2983   12.8281 C.3     1  UNL1        0.1095
     20 C          64.2553   91.9488   12.4674 C.3     1  UNL1        0.0769
     21 C          65.5927   92.6000   12.6609 C.3     1  UNL1        0.0437
     22 C          66.2204   93.3721   11.5385 C.ar    1  UNL1       -0.0184
     23 C          66.0485   94.8603   11.4638 C.ar    1  UNL1       -0.0018
     24 C          66.6762   95.6324   10.3413 C.ar    1  UNL1        0.0316
     25 C          67.4758   94.9162    9.2936 C.ar    1  UNL1        0.1674
     26 F          68.1035   95.6883    8.1712 F       1  UNL1       -0.2018
     27 C          67.6477   93.4280    9.3683 C.ar    1  UNL1        0.1671
     28 F          68.4473   92.7118    8.3206 F       1  UNL1       -0.2018
     29 C          67.0200   92.6559   10.4907 C.ar    1  UNL1        0.0277
     30 O          61.1586   80.4520   14.5172 O.2     1  UNL1        0.0415
     31 N          62.5371   80.6126   13.9481 N.pl3   1  UNL1        0.0810
     32 O          63.7054   79.9480   14.6137 O.co2   1  UNL1       -0.5760
     33 C          63.5638   86.3414   11.1005 C.3     1  UNL1        0.1108
     34 C          62.4380   86.8808   10.2690 C.3     1  UNL1        0.0508
     35 C          62.0480   86.1900    8.9959 C.ar    1  UNL1       -0.0202
     36 C          63.0802   85.4508    8.1971 C.ar    1  UNL1       -0.0042
     37 C          62.6901   84.7600    6.9240 C.ar    1  UNL1       -0.0003
     38 C          61.2679   84.8084    6.4498 C.ar    1  UNL1       -0.0000
     39 C          60.2357   85.5475    7.2486 C.ar    1  UNL1       -0.0003
     40 C          60.6257   86.2383    8.5217 C.ar    1  UNL1       -0.0042
@<TRIPOS>UNITY_ATOM_ATTR
31 1
charge 1
32 1
charge -1
@<TRIPOS>BOND
     1    30    31    2
     2    31    32    1
     3    31     1    1
     4     1     2   ar
     5     2     3   ar
     6     3     4   ar
     7     4     5   ar
     8     5     6   ar
     9     6     7   ar
    10     7     8   ar
    11     8     9   ar
    12     9    10   ar
    13    10    11   ar
    14    11    14    1
    15    14    15    1
    16    15    16    1
    17    16    17    1
    18    17    20    1
    19    20    21    1
    20    21    22    1
    21    22    23   ar
    22    23    24   ar
    23    24    25   ar
    24    25    26    1
    25    25    27   ar
    26    27    28    1
    27    27    29   ar
    28    17    18    1
    29    18    19    1
    30    11    12   ar
    31    12    13   ar
    32    13    33    1
    33    33    34    1
    34    34    35    1
    35    35    36   ar
    36    36    37   ar
    37    37    38   ar
    38    38    39   ar
    39    39    40   ar
    40     6     1   ar
    41    12     7   ar
    42    40    35   ar
    43    13     5   ar
    44    19    14    1
    45    29    22   ar
@<TRIPOS>MOLECULE
*****
 40 45 0 0 0
SMALL
GASTEIGER

@<TRIPOS>ATOM
      1 C          62.6896   82.0377   12.8171 C.ar    1  UNL1        0.2928
      2 C          62.7292   81.7324   11.3491 C.ar    1  UNL1        0.0754
      3 C          63.0157   82.8259   10.3631 C.ar    1  UNL1        0.0078
      4 C          63.2626   84.2247   10.8451 C.ar    1  UNL1        0.0176
      5 C          63.2230   84.5299   12.3132 C.ar    1  UNL1        0.0674
      6 C          62.9365   83.4364   13.2992 C.ar    1  UNL1        0.1042
      7 C          62.9619   84.0342   14.6747 C.ar    1  UNL1        0.1088
      8 N          62.7488   83.4354   16.0334 N.ar    1  UNL1       -0.2222
      9 C          62.8379   84.2996   17.2562 C.ar    1  UNL1        0.2001
     10 N          63.1401   85.7625   17.1204 N.ar    1  UNL1       -0.2075
     11 C          63.3531   86.3613   15.7617 C.ar    1  UNL1        0.1509
     12 C          63.2640   85.4972   14.5388 C.ar    1  UNL1        0.1101
     13 N          63.4254   85.8035   13.0794 N.ar    1  UNL1       -0.3233
     14 N          63.6553   87.8243   15.6258 N.pl3   1  UNL1       -0.2892
     15 C          62.9679   88.8178   16.5148 C.3     1  UNL1        0.1095
     16 C          63.2701   90.2808   16.3790 C.3     1  UNL1        0.0939
     17 N          64.2597   90.7502   15.3541 N.3     1  UNL1       -0.2695
     18 C          64.9471   89.7567   14.4650 C.3     1  UNL1        0.0939
     19 C          64.6449   88.2938   14.6009 C.3     1  UNL1        0.1095
     20 C          64.5618   92.2131   15.2182 C.3     1  UNL1        0.0769
     21 C          65.9751   92.6710   15.0110 C.3     1  UNL1        0.0437
     22 C          66.6382   92.4789   13.6793 C.ar    1  UNL1       -0.0184
     23 C          67.9893   91.8323   13.6006 C.ar    1  UNL1       -0.0018
     24 C          68.6523   91.6402   12.2688 C.ar    1  UNL1        0.0316
     25 C          67.9641   92.0946   11.0158 C.ar    1  UNL1        0.1674
     26 F          68.6272   91.9024    9.6841 F       1  UNL1       -0.2018
     27 C          66.6129   92.7412   11.0946 C.ar    1  UNL1        0.1671
     28 F          65.9247   93.1956    9.8416 F       1  UNL1       -0.2018
     29 C          65.9500   92.9333   12.4263 C.ar    1  UNL1        0.0277
     30 O          61.0053   80.7341   14.3050 O.2     1  UNL1        0.0415
     31 N          62.4031   80.9441   13.8031 N.pl3   1  UNL1        0.0810
     32 O          63.5144   80.0607   14.2872 O.co2   1  UNL1       -0.5760
     33 C          63.7349   87.1475   12.4895 C.3     1  UNL1        0.1108
     34 C          62.6263   88.0061   11.9569 C.3     1  UNL1        0.0508
     35 C          61.8541   87.5692   10.7475 C.ar    1  UNL1       -0.0202
     36 C          62.5640   86.9107    9.6019 C.ar    1  UNL1       -0.0042
     37 C          61.7918   86.4738    8.3924 C.ar    1  UNL1       -0.0003
     38 C          60.3097   86.6953    8.3286 C.ar    1  UNL1       -0.0000
     39 C          59.5997   87.3538    9.4742 C.ar    1  UNL1       -0.0003
     40 C          60.3719   87.7907   10.6836 C.ar    1  UNL1       -0.0042
@<TRIPOS>UNITY_ATOM_ATTR
31 1
charge 1
32 1
charge -1
@<TRIPOS>BOND
     1    30    31    2
     2    31    32    1
     3    31     1    1
     4     1     2   ar
     5     2     3   ar
     6     3     4   ar
     7     4     5   ar
     8     5     6   ar
     9     6     7   ar
    10     7     8   ar
    11     8     9   ar
    12     9    10   ar
    13    10    11   ar
    14    11    14    1
    15    14    15    1
    16    15    16    1
    17    16    17    1
    18    17    20    1
    19    20    21    1
    20    21    22    1
    21    22    23   ar
    22    23    24   ar
    23    24    25   ar
    24    25    26    1
    25    25    27   ar
    26    27    28    1
    27    27    29   ar
    28    17    18    1
    29    18    19    1
    30    11    12   ar
    31    12    13   ar
    32    13    33    1
    33    33    34    1
    34    34    35    1
    35    35    36   ar
    36    36    37   ar
    37    37    38   ar
    38    38    39   ar
    39    39    40   ar
    40     6     1   ar
    41    12     7   ar
    42    40    35   ar
    43    13     5   ar
    44    19    14    1
    45    29    22   ar
@<TRIPOS>MOLECULE
*****
 40 45 0 0 0
SMALL
GASTEIGER

@<TRIPOS>ATOM
      1 C          62.7356   80.9828   12.6145 C.ar    1  UNL1        0.2928
      2 C          62.7617   80.3230   11.2677 C.ar    1  UNL1        0.0754
      3 C          62.9951   81.1444   10.0345 C.ar    1  UNL1        0.0078
      4 C          63.2023   82.6256   10.1481 C.ar    1  UNL1        0.0176
      5 C          63.1761   83.2855   11.4948 C.ar    1  UNL1        0.0674
      6 C          62.9428   82.4641   12.7281 C.ar    1  UNL1        0.1042
      7 C          62.9702   83.3859   13.9110 C.ar    1  UNL1        0.1088
      8 N          62.7995   83.1384   15.3806 N.ar    1  UNL1       -0.2222
      9 C          62.8791   84.2819   16.3480 C.ar    1  UNL1        0.2001
     10 N          63.1293   85.6731   15.8459 N.ar    1  UNL1       -0.2075
     11 C          63.3000   85.9207   14.3764 C.ar    1  UNL1        0.1509
     12 C          63.2204   84.7771   13.4090 C.ar    1  UNL1        0.1101
     13 N          63.3477   84.7150   11.9157 N.ar    1  UNL1       -0.3233
     14 N          63.5502   87.3118   13.8743 N.pl3   1  UNL1       -0.2892
     15 C          62.9042   87.7780   12.6034 C.3     1  UNL1        0.1095
     16 C          63.1545   89.1692   12.1014 C.3     1  UNL1        0.0939
     17 N          64.0507   90.0941   12.8703 N.3     1  UNL1       -0.2695
     18 C          64.6967   89.6280   14.1413 C.3     1  UNL1        0.0939
     19 C          64.4464   88.2368   14.6433 C.3     1  UNL1        0.1095
     20 C          64.3009   91.4853   12.3682 C.3     1  UNL1        0.0769
     21 C          64.6827   92.5721   13.3290 C.3     1  UNL1        0.0437
     22 C          65.9795   92.4893   14.0784 C.ar    1  UNL1       -0.0184
     23 C          65.9983   92.6711   15.5671 C.ar    1  UNL1       -0.0018
     24 C          67.2951   92.5882   16.3164 C.ar    1  UNL1        0.0316
     25 C          68.5730   92.3236   15.5770 C.ar    1  UNL1        0.1674
     26 F          69.8698   92.2407   16.3263 F       1  UNL1       -0.2018
     27 C          68.5542   92.1418   14.0881 C.ar    1  UNL1        0.1671
     28 F          69.8321   91.8771   13.3487 F       1  UNL1       -0.2018
     29 C          67.2575   92.2246   13.3389 C.ar    1  UNL1        0.0277
     30 O          61.1227   79.6698   14.1715 O.2     1  UNL1        0.0415
     31 N          62.5023   80.1614   13.8478 N.pl3   1  UNL1        0.0810
     32 O          63.6486   79.8317   14.7572 O.co2   1  UNL1       -0.5760
     33 C          63.6019   85.8782   11.0033 C.3     1  UNL1        0.1108
     34 C          62.4697   86.4860   10.2297 C.3     1  UNL1        0.0508
     35 C          62.0703   85.9068    8.9049 C.ar    1  UNL1       -0.0202
     36 C          63.0816   85.1809    8.0681 C.ar    1  UNL1       -0.0042
     37 C          62.6822   84.6017    6.7434 C.ar    1  UNL1       -0.0003
     38 C          61.2713   84.7484    6.2554 C.ar    1  UNL1       -0.0000
     39 C          60.2600   85.4742    7.0922 C.ar    1  UNL1       -0.0003
     40 C          60.6595   86.0534    8.4170 C.ar    1  UNL1       -0.0042
@<TRIPOS>UNITY_ATOM_ATTR
31 1
charge 1
32 1
charge -1
@<TRIPOS>BOND
     1    30    31    2
     2    31    32    1
     3    31     1    1
     4     1     2   ar
     5     2     3   ar
     6     3     4   ar
     7     4     5   ar
     8     5     6   ar
     9     6     7   ar
    10     7     8   ar
    11     8     9   ar
    12     9    10   ar
    13    10    11   ar
    14    11    14    1
    15    14    15    1
    16    15    16    1
    17    16    17    1
    18    17    20    1
    19    20    21    1
    20    21    22    1
    21    22    23   ar
    22    23    24   ar
    23    24    25   ar
    24    25    26    1
    25    25    27   ar
    26    27    28    1
    27    27    29   ar
    28    17    18    1
    29    18    19    1
    30    11    12   ar
    31    12    13   ar
    32    13    33    1
    33    33    34    1
    34    34    35    1
    35    35    36   ar
    36    36    37   ar
    37    37    38   ar
    38    38    39   ar
    39    39    40   ar
    40     6     1   ar
    41    12     7   ar
    42    40    35   ar
    43    13     5   ar
    44    19    14    1
    45    29    22   ar
@<TRIPOS>MOLECULE
*****
 40 45 0 0 0
SMALL
GASTEIGER

@<TRIPOS>ATOM
      1 C          63.0091   83.1276   10.4006 C.ar    1  UNL1        0.2928
      2 C          62.7174   83.4562    8.9664 C.ar    1  UNL1        0.0754
      3 C          62.5822   84.8872    8.5374 C.ar    1  UNL1        0.0078
      4 C          62.7387   85.9895    9.5425 C.ar    1  UNL1        0.0176
      5 C          63.0304   85.6609   10.9767 C.ar    1  UNL1        0.0674
      6 C          63.1656   84.2299   11.4057 C.ar    1  UNL1        0.1042
      7 C          63.4535   84.2126   12.8777 C.ar    1  UNL1        0.1088
      8 N          63.6823   83.0871   13.8425 N.ar    1  UNL1       -0.2222
      9 C          63.9537   83.3818   15.2880 C.ar    1  UNL1        0.2001
     10 N          63.9964   84.8020   15.7688 N.ar    1  UNL1       -0.2075
     11 C          63.7677   85.9276   14.8040 C.ar    1  UNL1        0.1509
     12 C          63.4962   85.6329   13.3585 C.ar    1  UNL1        0.1101
     13 N          63.2347   86.5279   12.1835 N.ar    1  UNL1       -0.3233
     14 N          63.8104   87.3478   15.2847 N.pl3   1  UNL1       -0.2892
     15 C          64.5860   88.3765   14.5167 C.3     1  UNL1        0.1095
     16 C          64.6286   89.7968   14.9975 C.3     1  UNL1        0.0939
     17 N          63.8957   90.1882   16.2463 N.3     1  UNL1       -0.2695
     18 C          63.1200   89.1594   17.0144 C.3     1  UNL1        0.0939
     19 C          63.0773   87.7392   16.5336 C.3     1  UNL1        0.1095
     20 C          63.9384   91.6084   16.7271 C.3     1  UNL1        0.0769
     21 C          64.5411   92.6753   15.8619 C.3     1  UNL1        0.0437
     22 C          65.9569   92.5427   15.3843 C.ar    1  UNL1       -0.0184
     23 C          67.0915   92.6700   16.3570 C.ar    1  UNL1       -0.0018
     24 C          68.5073   92.5374   15.8793 C.ar    1  UNL1        0.0316
     25 C          68.7883   92.2774   14.4290 C.ar    1  UNL1        0.1674
     26 F          70.2040   92.1447   13.9514 F       1  UNL1       -0.2018
     27 C          67.6536   92.1500   13.4563 C.ar    1  UNL1        0.1671
     28 F          67.9345   91.8900   12.0060 F       1  UNL1       -0.2018
     29 C          66.2379   92.2827   13.9339 C.ar    1  UNL1        0.0277
     30 O          62.4198   81.2074   12.0485 O.2     1  UNL1        0.0415
     31 N          63.1444   81.6966   10.8296 N.pl3   1  UNL1        0.0810
     32 O          64.0041   80.7549   10.0398 O.co2   1  UNL1       -0.5760
     33 C          63.1860   88.0269   12.2107 C.3     1  UNL1        0.1108
     34 C          61.8719   88.7372   12.0757 C.3     1  UNL1        0.0508
     35 C          61.1060   88.6595   10.7882 C.ar    1  UNL1       -0.0202
     36 C          60.1709   87.5133   10.5399 C.ar    1  UNL1       -0.0042
     37 C          59.4050   87.4356    9.2524 C.ar    1  UNL1       -0.0003
     38 C          59.5743   88.5041    8.2134 C.ar    1  UNL1       -0.0000
     39 C          60.5095   89.6503    8.4618 C.ar    1  UNL1       -0.0003
     40 C          61.2753   89.7280    9.7492 C.ar    1  UNL1       -0.0042
@<TRIPOS>UNITY_ATOM_ATTR
31 1
charge 1
32 1
charge -1
@<TRIPOS>BOND
     1    30    31    2
     2    31    32    1
     3    31     1    1
     4     1     2   ar
     5     2     3   ar
     6     3     4   ar
     7     4     5   ar
     8     5     6   ar
     9     6     7   ar
    10     7     8   ar
    11     8     9   ar
    12     9    10   ar
    13    10    11   ar
    14    11    14    1
    15    14    15    1
    16    15    16    1
    17    16    17    1
    18    17    20    1
    19    20    21    1
    20    21    22    1
    21    22    23   ar
    22    23    24   ar
    23    24    25   ar
    24    25    26    1
    25    25    27   ar
    26    27    28    1
    27    27    29   ar
    28    17    18    1
    29    18    19    1
    30    11    12   ar
    31    12    13   ar
    32    13    33    1
    33    33    34    1
    34    34    35    1
    35    35    36   ar
    36    36    37   ar
    37    37    38   ar
    38    38    39   ar
    39    39    40   ar
    40     6     1   ar
    41    12     7   ar
    42    40    35   ar
    43    13     5   ar
    44    19    14    1
    45    29    22   ar
@<TRIPOS>MOLECULE
*****
 40 45 0 0 0
SMALL
GASTEIGER

@<TRIPOS>ATOM
      1 C          64.3353   86.3894   14.5612 C.ar    1  UNL1        0.2928
      2 C          64.5297   87.4410   15.6131 C.ar    1  UNL1        0.0754
      3 C          63.9354   88.8058   15.4280 C.ar    1  UNL1        0.0078
      4 C          63.1469   89.1190   14.1910 C.ar    1  UNL1        0.0176
      5 C          62.9526   88.0674   13.1392 C.ar    1  UNL1        0.0674
      6 C          63.5468   86.7026   13.3243 C.ar    1  UNL1        0.1042
      7 C          63.1907   85.8755   12.1247 C.ar    1  UNL1        0.1088
      8 N          63.5028   84.4553   11.7563 N.ar    1  UNL1       -0.2222
      9 C          63.0005   83.8887   10.4614 C.ar    1  UNL1        0.2001
     10 N          62.1863   84.7422    9.5349 N.ar    1  UNL1       -0.2075
     11 C          61.8742   86.1624    9.9033 C.ar    1  UNL1        0.1509
     12 C          62.3765   86.7290   11.1982 C.ar    1  UNL1        0.1101
     13 N          62.2293   88.0837   11.8252 N.ar    1  UNL1       -0.3233
     14 N          61.0600   87.0159    8.9768 N.pl3   1  UNL1       -0.2892
     15 C          60.1275   86.3753    7.9920 C.3     1  UNL1        0.1095
     16 C          59.3132   87.2290    7.0654 C.3     1  UNL1        0.0939
     17 N          59.4315   88.7231    7.1238 N.3     1  UNL1       -0.2695
     18 C          60.3640   89.3638    8.1087 C.3     1  UNL1        0.0939
     19 C          61.1782   88.5102    9.0351 C.3     1  UNL1        0.1095
     20 C          58.6172   89.5767    6.1973 C.3     1  UNL1        0.0769
     21 C          58.9400   91.0332    6.0412 C.3     1  UNL1        0.0437
     22 C          59.8033   91.4924    4.9037 C.ar    1  UNL1       -0.0184
     23 C          59.2785   92.4979    3.9223 C.ar    1  UNL1       -0.0018
     24 C          60.1420   92.9570    2.7848 C.ar    1  UNL1        0.0316
     25 C          61.5302   92.4106    2.6289 C.ar    1  UNL1        0.1674
     26 F          62.3935   92.8698    1.4914 F       1  UNL1       -0.2018
     27 C          62.0550   91.4050    3.6104 C.ar    1  UNL1        0.1671
     28 F          63.4432   90.8586    3.4545 F       1  UNL1       -0.2018
     29 C          61.1916   90.9459    4.7478 C.ar    1  UNL1        0.0277
     30 O          64.0604   83.8802   15.1761 O.2     1  UNL1        0.0415
     31 N          64.9295   85.0246   14.7464 N.pl3   1  UNL1        0.0810
     32 O          66.3929   84.8043   14.5017 O.co2   1  UNL1       -0.5760
     33 C          61.4888   89.2500   11.2408 C.3     1  UNL1        0.1108
     34 C          61.7462   90.6355   11.7546 C.3     1  UNL1        0.0508
     35 C          63.1149   91.2375   11.6354 C.ar    1  UNL1       -0.0202
     36 C          63.9396   91.4749   12.8656 C.ar    1  UNL1       -0.0042
     37 C          65.3083   92.0768   12.7464 C.ar    1  UNL1       -0.0003
     38 C          65.8524   92.4414   11.3970 C.ar    1  UNL1       -0.0000
     39 C          65.0278   92.2040   10.1667 C.ar    1  UNL1       -0.0003
     40 C          63.6590   91.6020   10.2859 C.ar    1  UNL1       -0.0042
@<TRIPOS>UNITY_ATOM_ATTR
31 1
charge 1
32 1
charge -1
@<TRIPOS>BOND
     1    30    31    2
     2    31    32    1
     3    31     1    1
     4     1     2   ar
     5     2     3   ar
     6     3     4   ar
     7     4     5   ar
     8     5     6   ar
     9     6     7   ar
    10     7     8   ar
    11     8     9   ar
    12     9    10   ar
    13    10    11   ar
    14    11    14    1
    15    14    15    1
    16    15    16    1
    17    16    17    1
    18    17    20    1
    19    20    21    1
    20    21    22    1
    21    22    23   ar
    22    23    24   ar
    23    24    25   ar
    24    25    26    1
    25    25    27   ar
    26    27    28    1
    27    27    29   ar
    28    17    18    1
    29    18    19    1
    30    11    12   ar
    31    12    13   ar
    32    13    33    1
    33    33    34    1
    34    34    35    1
    35    35    36   ar
    36    36    37   ar
    37    37    38   ar
    38    38    39   ar
    39    39    40   ar
    40     6     1   ar
    41    12     7   ar
    42    40    35   ar
    43    13     5   ar
    44    19    14    1
    45    29    22   ar
