@<TRIPOS>MOLECULE
*****
 24 26 0 0 0
SMALL
GASTEIGER

@<TRIPOS>ATOM
      1 C          65.8722   92.7142   13.0408 C.ar    1  UNL1        0.0511
      2 C          66.4151   92.7359   14.4390 C.ar    1  UNL1        0.0823
      3 C          67.5123   93.6247   14.9451 C.3     1  UNL1        0.0540
      4 N          65.6680   91.7128   15.2421 N.ar    1  UNL1       -0.1681
      5 N          64.6635   91.0588   14.3404 N.ar    1  UNL1       -0.2085
      6 C          63.6501   89.9797   14.5823 C.ar    1  UNL1        0.1569
      7 C          62.7630   89.5194   13.4638 C.ar    1  UNL1        0.0379
      8 C          62.8892   90.1384   12.1033 C.ar    1  UNL1        0.0625
      9 C          62.0021   89.6781   10.9847 C.3     1  UNL1        0.0522
     10 N          63.9026   91.2175   11.8613 N.ar    1  UNL1       -0.2308
     11 C          64.7897   91.6777   12.9799 C.ar    1  UNL1        0.1644
     12 C          67.2495   95.3040    9.6281 C.ar    1  UNL1        0.1660
     13 C          66.6066   95.9279   10.8311 C.ar    1  UNL1        0.0392
     14 C          66.1475   95.0647   11.9686 C.ar    1  UNL1        0.0034
     15 C          66.3313   93.5775   11.9033 C.ar    1  UNL1        0.0066
     16 C          66.9743   92.9535   10.7002 C.ar    1  UNL1        0.0329
     17 C          67.4334   93.8167    9.5626 C.ar    1  UNL1        0.1738
     18 F          68.0763   93.1927    8.3596 F       1  UNL1       -0.2010
     19 C          66.7017   96.8560    7.6178 C.3     1  UNL1        0.2526
     20 O          67.7086   96.1672    8.4905 O.3     1  UNL1       -0.4692
     21 C          63.5239   89.3607   15.9429 C.3     1  UNL1        0.4350
     22 F          63.3977   88.7418   17.3034 F       1  UNL1       -0.1644
     23 F          63.9055   88.0273   15.3717 F       1  UNL1       -0.1644
     24 F          63.1423   90.6942   16.5141 F       1  UNL1       -0.1644
@<TRIPOS>BOND
     1    19    20    1
     2    20    12    1
     3    12    13   ar
     4    13    14   ar
     5    14    15   ar
     6    15     1    1
     7     1     2   ar
     8     2     3    1
     9     2     4   ar
    10     4     5   ar
    11     5     6   ar
    12     6    21    1
    13    21    22    1
    14    21    23    1
    15    21    24    1
    16     6     7   ar
    17     7     8   ar
    18     8     9    1
    19     8    10   ar
    20    10    11   ar
    21    15    16   ar
    22    16    17   ar
    23    17    18    1
    24    17    12   ar
    25    11     1   ar
    26    11     5   ar
@<TRIPOS>MOLECULE
*****
 24 26 0 0 0
SMALL
GASTEIGER

@<TRIPOS>ATOM
      1 C          63.1702   89.4130   11.7928 C.ar    1  UNL1        0.0511
      2 C          62.6972   90.0158   10.5033 C.ar    1  UNL1        0.0823
      3 C          62.7763   91.4656   10.1264 C.3     1  UNL1        0.0540
      4 N          62.1312   88.9144    9.6568 N.ar    1  UNL1       -0.1681
      5 N          62.2544   87.6308   10.4231 N.ar    1  UNL1       -0.2085
      6 C          61.8648   86.2213   10.0894 C.ar    1  UNL1        0.1569
      7 C          62.1173   85.1199   11.0758 C.ar    1  UNL1        0.0379
      8 C          62.7595   85.4280   12.3959 C.ar    1  UNL1        0.0625
      9 C          63.0120   84.3265   13.3824 C.3     1  UNL1        0.0522
     10 N          63.1491   86.8375   12.7296 N.ar    1  UNL1       -0.2308
     11 C          62.8965   87.9390   11.7432 C.ar    1  UNL1        0.1644
     12 C          65.0756   91.6359   15.2101 C.ar    1  UNL1        0.1660
     13 C          65.5581   91.8601   13.8076 C.ar    1  UNL1        0.0392
     14 C          64.9229   91.1191   12.6685 C.ar    1  UNL1        0.0034
     15 C          63.8053   90.1540   12.9318 C.ar    1  UNL1        0.0066
     16 C          63.3228   89.9298   14.3344 C.ar    1  UNL1        0.0329
     17 C          63.9579   90.6708   15.4735 C.ar    1  UNL1        0.1738
     18 F          63.4754   90.4466   16.8759 F       1  UNL1       -0.2010
     19 C          67.1339   92.8387   16.2429 C.3     1  UNL1        0.2526
     20 O          65.7107   92.3769   16.3492 O.3     1  UNL1       -0.4692
     21 C          61.2227   85.9132    8.7693 C.3     1  UNL1        0.4350
     22 F          60.5805   85.6051    7.4491 F       1  UNL1       -0.1644
     23 F          59.9203   86.4587    9.2755 F       1  UNL1       -0.1644
     24 F          62.5251   85.3677    8.2631 F       1  UNL1       -0.1644
@<TRIPOS>BOND
     1    19    20    1
     2    20    12    1
     3    12    13   ar
     4    13    14   ar
     5    14    15   ar
     6    15     1    1
     7     1     2   ar
     8     2     3    1
     9     2     4   ar
    10     4     5   ar
    11     5     6   ar
    12     6    21    1
    13    21    22    1
    14    21    23    1
    15    21    24    1
    16     6     7   ar
    17     7     8   ar
    18     8     9    1
    19     8    10   ar
    20    10    11   ar
    21    15    16   ar
    22    16    17   ar
    23    17    18    1
    24    17    12   ar
    25    11     1   ar
    26    11     5   ar
@<TRIPOS>MOLECULE
*****
 24 26 0 0 0
SMALL
GASTEIGER

@<TRIPOS>ATOM
      1 C          62.4856   88.4176   10.9550 C.ar    1  UNL1        0.0511
      2 C          62.4909   89.9171   10.9166 C.ar    1  UNL1        0.0823
      3 C          61.9720   90.7722    9.7988 C.3     1  UNL1        0.0540
      4 N          63.1062   90.4113   12.1922 N.ar    1  UNL1       -0.1681
      5 N          63.4812   89.2172   13.0190 N.ar    1  UNL1       -0.2085
      6 C          64.1223   89.0927   14.3693 C.ar    1  UNL1        0.1569
      7 C          64.3800   87.7361   14.9550 C.ar    1  UNL1        0.0379
      8 C          63.9964   86.5039   14.1904 C.ar    1  UNL1        0.0625
      9 C          64.2541   85.1472   14.7762 C.3     1  UNL1        0.0522
     10 N          63.3553   86.6284   12.8401 N.ar    1  UNL1       -0.2308
     11 C          63.0977   87.9850   12.2544 C.ar    1  UNL1        0.1644
     12 C          60.9103   85.6946    7.7372 C.ar    1  UNL1        0.1660
     13 C          62.3506   85.6150    8.1484 C.ar    1  UNL1        0.0392
     14 C          62.8757   86.5226    9.2210 C.ar    1  UNL1        0.0034
     15 C          61.9606   87.5099    9.8824 C.ar    1  UNL1        0.0066
     16 C          60.5201   87.5896    9.4712 C.ar    1  UNL1        0.0329
     17 C          59.9950   86.6820    8.3987 C.ar    1  UNL1        0.1738
     18 F          58.5547   86.7617    7.9876 F       1  UNL1       -0.2010
     19 C          61.3357   84.1186    5.7160 C.3     1  UNL1        0.2526
     20 O          60.3852   84.7870    6.6646 O.3     1  UNL1       -0.4692
     21 C          64.5058   90.3249   15.1339 C.3     1  UNL1        0.4350
     22 F          64.8894   91.5571   15.8985 F       1  UNL1       -0.1644
     23 F          63.3954   90.0658   16.1085 F       1  UNL1       -0.1644
     24 F          65.6163   90.5840   14.1594 F       1  UNL1       -0.1644
@<TRIPOS>BOND
     1    19    20    1
     2    20    12    1
     3    12    13   ar
     4    13    14   ar
     5    14    15   ar
     6    15     1    1
     7     1     2   ar
     8     2     3    1
     9     2     4   ar
    10     4     5   ar
    11     5     6   ar
    12     6    21    1
    13    21    22    1
    14    21    23    1
    15    21    24    1
    16     6     7   ar
    17     7     8   ar
    18     8     9    1
    19     8    10   ar
    20    10    11   ar
    21    15    16   ar
    22    16    17   ar
    23    17    18    1
    24    17    12   ar
    25    11     1   ar
    26    11     5   ar
@<TRIPOS>MOLECULE
*****
 24 26 0 0 0
SMALL
GASTEIGER

@<TRIPOS>ATOM
      1 C          62.9475   85.1760   12.2222 C.ar    1  UNL1        0.0511
      2 C          63.6709   85.9584   13.2780 C.ar    1  UNL1        0.0823
      3 C          64.4536   85.3829   14.4208 C.3     1  UNL1        0.0540
      4 N          63.4740   87.4173   12.9902 N.ar    1  UNL1       -0.1681
      5 N          62.6290   87.5366   11.7566 N.ar    1  UNL1       -0.2085
      6 C          62.1138   88.7276   11.0042 C.ar    1  UNL1        0.1569
      7 C          61.2732   88.5333    9.7772 C.ar    1  UNL1        0.0379
      8 C          60.9478   87.1481    9.3026 C.ar    1  UNL1        0.0625
      9 C          60.1071   86.9539    8.0755 C.3     1  UNL1        0.0522
     10 N          61.4630   85.9571   10.0549 N.ar    1  UNL1       -0.2308
     11 C          62.3036   86.1514   11.2820 C.ar    1  UNL1        0.1644
     12 C          62.7446   80.6902   11.9274 C.ar    1  UNL1        0.1660
     13 C          63.3719   81.4869   10.8221 C.ar    1  UNL1        0.0392
     14 C          63.4395   82.9821   10.9204 C.ar    1  UNL1        0.0034
     15 C          62.8799   83.6808   12.1239 C.ar    1  UNL1        0.0066
     16 C          62.2525   82.8841   13.2293 C.ar    1  UNL1        0.0329
     17 C          62.1849   81.3888   13.1310 C.ar    1  UNL1        0.1738
     18 F          61.5575   80.5922   14.2364 F       1  UNL1       -0.2010
     19 C          62.7591   78.5270   10.4886 C.3     1  UNL1        0.2526
     20 O          62.6769   79.1950   11.8291 O.3     1  UNL1       -0.4692
     21 C          62.4392   90.1128   11.4789 C.3     1  UNL1        0.4350
     22 F          62.7647   91.4980   11.9535 F       1  UNL1       -0.1644
     23 F          63.3447   90.3045   10.2984 F       1  UNL1       -0.1644
     24 F          61.5338   89.9210   12.6593 F       1  UNL1       -0.1644
@<TRIPOS>BOND
     1    19    20    1
     2    20    12    1
     3    12    13   ar
     4    13    14   ar
     5    14    15   ar
     6    15     1    1
     7     1     2   ar
     8     2     3    1
     9     2     4   ar
    10     4     5   ar
    11     5     6   ar
    12     6    21    1
    13    21    22    1
    14    21    23    1
    15    21    24    1
    16     6     7   ar
    17     7     8   ar
    18     8     9    1
    19     8    10   ar
    20    10    11   ar
    21    15    16   ar
    22    16    17   ar
    23    17    18    1
    24    17    12   ar
    25    11     1   ar
    26    11     5   ar
@<TRIPOS>MOLECULE
*****
 24 26 0 0 0
SMALL
GASTEIGER

@<TRIPOS>ATOM
      1 C          64.2499   90.4690   13.4193 C.ar    1  UNL1        0.0511
      2 C          63.6131   90.5887   12.0664 C.ar    1  UNL1        0.0823
      3 C          62.5848   89.6607   11.4907 C.3     1  UNL1        0.0540
      4 N          64.1851   91.7994   11.3904 N.ar    1  UNL1       -0.1681
      5 N          65.1754   92.4279   12.3254 N.ar    1  UNL1       -0.2085
      6 C          66.0459   93.6427   12.1970 C.ar    1  UNL1        0.1569
      7 C          66.9564   94.0353   13.3225 C.ar    1  UNL1        0.0379
      8 C          66.9964   93.2131   14.5765 C.ar    1  UNL1        0.0625
      9 C          67.9069   93.6057   15.7021 C.3     1  UNL1        0.0522
     10 N          66.1259   91.9983   14.7049 N.ar    1  UNL1       -0.2308
     11 C          65.2154   91.6057   13.5793 C.ar    1  UNL1        0.1644
     12 C          63.4108   87.2627   16.4633 C.ar    1  UNL1        0.1660
     13 C          63.0352   88.6863   16.7504 C.ar    1  UNL1        0.0392
     14 C          63.3148   89.7550   15.7357 C.ar    1  UNL1        0.0034
     15 C          63.9702   89.4003   14.4339 C.ar    1  UNL1        0.0066
     16 C          64.3459   87.9767   14.1468 C.ar    1  UNL1        0.0329
     17 C          64.0662   86.9080   15.1615 C.ar    1  UNL1        0.1738
     18 F          64.4419   85.4845   14.8743 F       1  UNL1       -0.2010
     19 C          62.6852   86.5701   18.8599 C.3     1  UNL1        0.2526
     20 O          63.1311   86.1940   17.4780 O.3     1  UNL1       -0.4692
     21 C          66.0059   94.4649   10.9431 C.3     1  UNL1        0.4350
     22 F          65.9659   95.2871    9.6891 F       1  UNL1       -0.1644
     23 F          65.7199   95.6921   11.7568 F       1  UNL1       -0.1644
     24 F          66.2920   93.2378   10.1293 F       1  UNL1       -0.1644
@<TRIPOS>BOND
     1    19    20    1
     2    20    12    1
     3    12    13   ar
     4    13    14   ar
     5    14    15   ar
     6    15     1    1
     7     1     2   ar
     8     2     3    1
     9     2     4   ar
    10     4     5   ar
    11     5     6   ar
    12     6    21    1
    13    21    22    1
    14    21    23    1
    15    21    24    1
    16     6     7   ar
    17     7     8   ar
    18     8     9    1
    19     8    10   ar
    20    10    11   ar
    21    15    16   ar
    22    16    17   ar
    23    17    18    1
    24    17    12   ar
    25    11     1   ar
    26    11     5   ar
@<TRIPOS>MOLECULE
*****
 24 26 0 0 0
SMALL
GASTEIGER

@<TRIPOS>ATOM
      1 C          63.5311   86.0454   14.0070 C.ar    1  UNL1        0.0511
      2 C          63.3893   85.3484   15.3276 C.ar    1  UNL1        0.0823
      3 C          63.4301   86.0007   16.6777 C.3     1  UNL1        0.0540
      4 N          63.1995   83.8845   15.0611 N.ar    1  UNL1       -0.1681
      5 N          63.2240   83.6768   13.5757 N.ar    1  UNL1       -0.2085
      6 C          63.0863   82.4441   12.7323 C.ar    1  UNL1        0.1569
      7 C          63.1534   82.5470   11.2373 C.ar    1  UNL1        0.0379
      8 C          63.3583   83.8825   10.5859 C.ar    1  UNL1        0.0625
      9 C          63.4255   83.9853    9.0908 C.3     1  UNL1        0.0522
     10 N          63.4961   85.1151   11.4293 N.ar    1  UNL1       -0.2308
     11 C          63.4290   85.0123   12.9243 C.ar    1  UNL1        0.1644
     12 C          64.1536   90.4606   13.3997 C.ar    1  UNL1        0.1660
     13 C          64.6694   89.7941   14.6405 C.ar    1  UNL1        0.0392
     14 C          64.4619   88.3224   14.8429 C.ar    1  UNL1        0.0034
     15 C          63.7386   87.5171   13.8046 C.ar    1  UNL1        0.0066
     16 C          63.2227   88.1836   12.5637 C.ar    1  UNL1        0.0329
     17 C          63.4302   89.6554   12.3613 C.ar    1  UNL1        0.1738
     18 F          62.9143   90.3218   11.1204 F       1  UNL1       -0.2010
     19 C          65.4057   92.4173   12.2363 C.3     1  UNL1        0.2526
     20 O          64.3611   91.9323   13.1973 O.3     1  UNL1       -0.4692
     21 C          62.8813   81.1086   13.3837 C.3     1  UNL1        0.4350
     22 F          62.6764   79.7731   14.0352 F       1  UNL1       -0.1644
     23 F          64.3672   80.9174   13.4592 F       1  UNL1       -0.1644
     24 F          61.3955   81.2998   13.3083 F       1  UNL1       -0.1644
@<TRIPOS>BOND
     1    19    20    1
     2    20    12    1
     3    12    13   ar
     4    13    14   ar
     5    14    15   ar
     6    15     1    1
     7     1     2   ar
     8     2     3    1
     9     2     4   ar
    10     4     5   ar
    11     5     6   ar
    12     6    21    1
    13    21    22    1
    14    21    23    1
    15    21    24    1
    16     6     7   ar
    17     7     8   ar
    18     8     9    1
    19     8    10   ar
    20    10    11   ar
    21    15    16   ar
    22    16    17   ar
    23    17    18    1
    24    17    12   ar
    25    11     1   ar
    26    11     5   ar
@<TRIPOS>MOLECULE
*****
 24 26 0 0 0
SMALL
GASTEIGER

@<TRIPOS>ATOM
      1 C          62.9217   86.0752   12.5877 C.ar    1  UNL1        0.0511
      2 C          63.6376   87.1846   13.2997 C.ar    1  UNL1        0.0823
      3 C          64.4576   87.0463   14.5481 C.3     1  UNL1        0.0540
      4 N          63.3894   88.4563   12.5441 N.ar    1  UNL1       -0.1681
      5 N          62.5202   88.1331   11.3651 N.ar    1  UNL1       -0.2085
      6 C          61.9546   88.9886   10.2705 C.ar    1  UNL1        0.1569
      7 C          61.0999   88.3724    9.2029 C.ar    1  UNL1        0.0379
      8 C          60.8108   86.9008    9.2299 C.ar    1  UNL1        0.0625
      9 C          59.9560   86.2847    8.1622 C.3     1  UNL1        0.0522
     10 N          61.3764   86.0453   10.3245 N.ar    1  UNL1       -0.2308
     11 C          62.2311   86.6614   11.3921 C.ar    1  UNL1        0.1644
     12 C          62.8570   81.7482   13.8219 C.ar    1  UNL1        0.1660
     13 C          62.5950   82.8215   14.8364 C.ar    1  UNL1        0.0392
     14 C          62.6165   84.2638   14.4250 C.ar    1  UNL1        0.0034
     15 C          62.9001   84.6329   12.9991 C.ar    1  UNL1        0.0066
     16 C          63.1622   83.5596   11.9845 C.ar    1  UNL1        0.0329
     17 C          63.1406   82.1172   12.3959 C.ar    1  UNL1        0.1738
     18 F          63.4026   81.0440   11.3813 F       1  UNL1       -0.2010
     19 C          61.9127   79.3436   13.5459 C.3     1  UNL1        0.2526
     20 O          62.8354   80.3059   14.2333 O.3     1  UNL1       -0.4692
     21 C          62.2437   90.4602   10.2436 C.3     1  UNL1        0.4350
     22 F          62.5328   91.9318   10.2166 F       1  UNL1       -0.1644
     23 F          60.8049   90.7485   10.5545 F       1  UNL1       -0.1644
     24 F          63.6825   90.1718    9.9327 F       1  UNL1       -0.1644
@<TRIPOS>BOND
     1    19    20    1
     2    20    12    1
     3    12    13   ar
     4    13    14   ar
     5    14    15   ar
     6    15     1    1
     7     1     2   ar
     8     2     3    1
     9     2     4   ar
    10     4     5   ar
    11     5     6   ar
    12     6    21    1
    13    21    22    1
    14    21    23    1
    15    21    24    1
    16     6     7   ar
    17     7     8   ar
    18     8     9    1
    19     8    10   ar
    20    10    11   ar
    21    15    16   ar
    22    16    17   ar
    23    17    18    1
    24    17    12   ar
    25    11     1   ar
    26    11     5   ar
@<TRIPOS>MOLECULE
*****
 24 26 0 0 0
SMALL
GASTEIGER

@<TRIPOS>ATOM
      1 C          63.1767   90.3912   12.0184 C.ar    1  UNL1        0.0511
      2 C          64.0304   91.5027   11.4837 C.ar    1  UNL1        0.0823
      3 C          64.0698   91.9783   10.0617 C.3     1  UNL1        0.0540
      4 N          64.8378   92.0550   12.6208 N.ar    1  UNL1       -0.1681
      5 N          64.4832   91.2850   13.8582 N.ar    1  UNL1       -0.2085
      6 C          64.9624   91.3873   15.2759 C.ar    1  UNL1        0.1569
      7 C          64.4150   90.4613   16.3213 C.ar    1  UNL1        0.0379
      8 C          63.3883   89.4330   15.9490 C.ar    1  UNL1        0.0625
      9 C          62.8409   88.5069   16.9944 C.3     1  UNL1        0.0522
     10 N          62.9091   89.3307   14.5313 N.ar    1  UNL1       -0.2308
     11 C          63.4565   90.2567   13.4859 C.ar    1  UNL1        0.1644
     12 C          60.2840   87.8981    9.6379 C.ar    1  UNL1        0.1660
     13 C          60.1912   89.3948    9.6011 C.ar    1  UNL1        0.0392
     14 C          61.1554   90.2258   10.3946 C.ar    1  UNL1        0.0034
     15 C          62.2125   89.5602   11.2249 C.ar    1  UNL1        0.0066
     16 C          62.3053   88.0635   11.2617 C.ar    1  UNL1        0.0329
     17 C          61.3411   87.2325   10.4682 C.ar    1  UNL1        0.1738
     18 F          61.4340   85.7358   10.5051 F       1  UNL1       -0.2010
     19 C          59.8082   86.2605    7.6779 C.3     1  UNL1        0.2526
     20 O          59.3198   87.0671    8.8444 O.3     1  UNL1       -0.4692
     21 C          65.9890   92.4156   15.6482 C.3     1  UNL1        0.4350
     22 F          67.0157   93.4438   16.0205 F       1  UNL1       -0.1644
     23 F          66.8873   91.9139   14.5567 F       1  UNL1       -0.1644
     24 F          65.0908   92.9172   16.7398 F       1  UNL1       -0.1644
@<TRIPOS>BOND
     1    19    20    1
     2    20    12    1
     3    12    13   ar
     4    13    14   ar
     5    14    15   ar
     6    15     1    1
     7     1     2   ar
     8     2     3    1
     9     2     4   ar
    10     4     5   ar
    11     5     6   ar
    12     6    21    1
    13    21    22    1
    14    21    23    1
    15    21    24    1
    16     6     7   ar
    17     7     8   ar
    18     8     9    1
    19     8    10   ar
    20    10    11   ar
    21    15    16   ar
    22    16    17   ar
    23    17    18    1
    24    17    12   ar
    25    11     1   ar
    26    11     5   ar
@<TRIPOS>MOLECULE
*****
 24 26 0 0 0
SMALL
GASTEIGER

@<TRIPOS>ATOM
      1 C          63.7133   89.7703   12.4832 C.ar    1  UNL1        0.0511
      2 C          63.0655   90.2436   11.2158 C.ar    1  UNL1        0.0823
      3 C          63.0717   91.6500   10.6943 C.3     1  UNL1        0.0540
      4 N          62.4105   89.0634   10.5614 N.ar    1  UNL1       -0.1681
      5 N          62.6534   87.8608   11.4245 N.ar    1  UNL1       -0.2085
      6 C          62.2454   86.4244   11.2822 C.ar    1  UNL1        0.1569
      7 C          62.6426   85.4249   12.3277 C.ar    1  UNL1        0.0379
      8 C          63.4478   85.8618   13.5155 C.ar    1  UNL1        0.0625
      9 C          63.8451   84.8622   14.5610 C.3     1  UNL1        0.0522
     10 N          63.8558   87.2982   13.6577 N.ar    1  UNL1       -0.2308
     11 C          63.4586   88.2977   12.6122 C.ar    1  UNL1        0.1644
     12 C          66.0164   92.3206   15.3888 C.ar    1  UNL1        0.1660
     13 C          66.5084   92.1563   13.9814 C.ar    1  UNL1        0.0392
     14 C          65.7407   91.3062   13.0129 C.ar    1  UNL1        0.0034
     15 C          64.4810   90.6204   13.4517 C.ar    1  UNL1        0.0066
     16 C          63.9889   90.7847   14.8592 C.ar    1  UNL1        0.0329
     17 C          64.7566   91.6348   15.8277 C.ar    1  UNL1        0.1738
     18 F          64.2645   91.7991   17.2351 F       1  UNL1       -0.2010
     19 C          68.1775   93.6152   16.0242 C.3     1  UNL1        0.2526
     20 O          66.7841   93.1707   16.3573 O.3     1  UNL1       -0.4692
     21 C          61.4402   85.9876   10.0945 C.3     1  UNL1        0.4350
     22 F          60.6350   85.5507    8.9067 F       1  UNL1       -0.1644
     23 F          60.2641   86.7656   10.6056 F       1  UNL1       -0.1644
     24 F          62.6164   85.2095    9.5833 F       1  UNL1       -0.1644
@<TRIPOS>BOND
     1    19    20    1
     2    20    12    1
     3    12    13   ar
     4    13    14   ar
     5    14    15   ar
     6    15     1    1
     7     1     2   ar
     8     2     3    1
     9     2     4   ar
    10     4     5   ar
    11     5     6   ar
    12     6    21    1
    13    21    22    1
    14    21    23    1
    15    21    24    1
    16     6     7   ar
    17     7     8   ar
    18     8     9    1
    19     8    10   ar
    20    10    11   ar
    21    15    16   ar
    22    16    17   ar
    23    17    18    1
    24    17    12   ar
    25    11     1   ar
    26    11     5   ar
