@<TRIPOS>MOLECULE
*****
 34 37 0 0 0
SMALL
GASTEIGER

@<TRIPOS>ATOM
      1 C          63.5863   90.1522   12.7316 C.ar    1  UNL1        0.1474
      2 C          64.1483   89.0866   13.6252 C.ar    1  UNL1        0.0390
      3 C          63.8340   87.6439   13.3613 C.ar    1  UNL1        0.0205
      4 C          62.9577   87.2667   12.2038 C.ar    1  UNL1        0.0662
      5 C          62.3957   88.3323   11.3102 C.ar    1  UNL1        0.0767
      6 C          62.7100   89.7751   11.5741 C.ar    1  UNL1        0.0438
      7 C          61.5194   87.9552   10.1526 C.ar    1  UNL1        0.2820
      8 O          60.9574   89.0208    9.2590 O.2     1  UNL1       -0.2651
      9 N          61.2051   86.5125    9.8887 N.ar    1  UNL1       -0.1873
     10 C          61.7671   85.4468   10.7824 C.ar    1  UNL1        0.1819
     11 N          62.6434   85.8239   11.9399 N.ar    1  UNL1       -0.3057
     12 O          63.9006   91.5950   12.9955 O.3     1  UNL1       -0.4360
     13 C          67.0808   92.8548   15.0078 C.ar    1  UNL1        0.1487
     14 C          66.5937   92.7213   16.4202 C.ar    1  UNL1        0.0577
     15 C          65.2089   92.2125   16.6910 C.ar    1  UNL1        0.1052
     16 N          64.3111   91.8370   15.5494 N.ar    1  UNL1       -0.2097
     17 C          64.7982   91.9704   14.1370 C.ar    1  UNL1        0.2365
     18 C          66.1831   92.4793   13.8662 C.ar    1  UNL1        0.1586
     19 C          66.6702   92.6128   12.4538 C.3     1  UNL1        0.4257
     20 F          67.1573   92.7462   11.0414 F       1  UNL1       -0.1656
     21 F          65.7460   93.7756   12.2449 F       1  UNL1       -0.1656
     22 F          67.5944   91.4499   12.6626 F       1  UNL1       -0.1656
     23 C          69.2345   94.0589   15.8211 C.3     1  UNL1        0.2525
     24 O          68.4655   93.3636   14.7369 O.3     1  UNL1       -0.4713
     25 C          63.2054   84.7583   12.8335 C.3     1  UNL1        0.1387
     26 C          63.0641   83.3130   12.4578 C.ar    1  UNL1        0.0555
     27 C          62.3599   82.3634   13.3811 C.ar    1  UNL1        0.1424
     28 F          61.7969   82.8592   14.6800 F       1  UNL1       -0.2043
     29 C          62.2186   80.9182   13.0053 C.ar    1  UNL1        0.0591
     30 C          62.7816   80.4224   11.7064 C.ar    1  UNL1        0.1446
     31 F          62.6404   78.9771   11.3307 F       1  UNL1       -0.2040
     32 C          63.4859   81.3720   10.7832 C.ar    1  UNL1        0.0591
     33 C          63.6271   82.8172   11.1589 C.ar    1  UNL1        0.1424
     34 F          64.3313   83.7669   10.2356 F       1  UNL1       -0.2043
@<TRIPOS>BOND
     1    23    24    1
     2    24    13    1
     3    13    14   ar
     4    14    15   ar
     5    15    16   ar
     6    16    17   ar
     7    17    12    1
     8    12     1    1
     9     1     2   ar
    10     2     3   ar
    11     3     4   ar
    12     4     5   ar
    13     5     6   ar
    14     5     7   ar
    15     7     8    2
    16     7     9   ar
    17     9    10   ar
    18    10    11   ar
    19    11    25    1
    20    25    26    1
    21    26    27   ar
    22    27    28    1
    23    27    29   ar
    24    29    30   ar
    25    30    31    1
    26    30    32   ar
    27    32    33   ar
    28    33    34    1
    29    17    18   ar
    30    18    19    1
    31    19    20    1
    32    19    21    1
    33    19    22    1
    34    18    13   ar
    35     6     1   ar
    36    33    26   ar
    37    11     4   ar
@<TRIPOS>MOLECULE
*****
 34 37 0 0 0
SMALL
GASTEIGER

@<TRIPOS>ATOM
      1 C          62.3581   89.9647   12.0613 C.ar    1  UNL1        0.1474
      2 C          62.9134   90.9290   11.0555 C.ar    1  UNL1        0.0390
      3 C          63.9698   91.9126   11.4633 C.ar    1  UNL1        0.0205
      4 C          64.4709   91.9320   12.8770 C.ar    1  UNL1        0.0662
      5 C          63.9156   90.9678   13.8829 C.ar    1  UNL1        0.0767
      6 C          62.8592   89.9841   13.4750 C.ar    1  UNL1        0.0438
      7 C          64.4166   90.9871   15.2966 C.ar    1  UNL1        0.2820
      8 O          63.8613   90.0229   16.3024 O.2     1  UNL1       -0.2651
      9 N          65.4731   91.9708   15.7044 N.ar    1  UNL1       -0.1873
     10 C          66.0285   92.9351   14.6985 C.ar    1  UNL1        0.1819
     11 N          65.5274   92.9157   13.2848 N.ar    1  UNL1       -0.3057
     12 O          61.3016   88.9810   11.6535 O.3     1  UNL1       -0.4360
     13 C          61.6371   86.0087    9.0453 C.ar    1  UNL1        0.1487
     14 C          62.4804   85.0426    9.8234 C.ar    1  UNL1        0.0577
     15 C          62.9308   85.3893   11.2115 C.ar    1  UNL1        0.1052
     16 N          62.5378   86.7021   11.8216 N.ar    1  UNL1       -0.2097
     17 C          61.6945   87.6683   11.0435 C.ar    1  UNL1        0.2365
     18 C          61.2442   87.3215    9.6553 C.ar    1  UNL1        0.1586
     19 C          60.4009   88.2876    8.8771 C.3     1  UNL1        0.4257
     20 F          59.5576   89.2537    8.0990 F       1  UNL1       -0.1656
     21 F          59.2407   87.3404    8.9584 F       1  UNL1       -0.1656
     22 F          61.5611   89.2349    8.7959 F       1  UNL1       -0.1656
     23 C          62.0808   84.8625    6.7563 C.3     1  UNL1        0.2525
     24 O          61.1868   85.6621    7.6571 O.3     1  UNL1       -0.4713
     25 C          66.0827   93.8800   12.2790 C.3     1  UNL1        0.1387
     26 C          66.9359   93.3791   11.1514 C.ar    1  UNL1        0.0555
     27 C          66.8883   94.0595    9.8155 C.ar    1  UNL1        0.1424
     28 F          65.9876   95.2406    9.6070 F       1  UNL1       -0.2043
     29 C          67.7414   93.5586    8.6880 C.ar    1  UNL1        0.0591
     30 C          68.6422   92.3774    8.8965 C.ar    1  UNL1        0.1446
     31 F          69.4953   91.8766    7.7689 F       1  UNL1       -0.2040
     32 C          68.6898   91.6971   10.2324 C.ar    1  UNL1        0.0591
     33 C          67.8366   92.1979   11.3599 C.ar    1  UNL1        0.1424
     34 F          67.8842   91.5176   12.6959 F       1  UNL1       -0.2043
@<TRIPOS>BOND
     1    23    24    1
     2    24    13    1
     3    13    14   ar
     4    14    15   ar
     5    15    16   ar
     6    16    17   ar
     7    17    12    1
     8    12     1    1
     9     1     2   ar
    10     2     3   ar
    11     3     4   ar
    12     4     5   ar
    13     5     6   ar
    14     5     7   ar
    15     7     8    2
    16     7     9   ar
    17     9    10   ar
    18    10    11   ar
    19    11    25    1
    20    25    26    1
    21    26    27   ar
    22    27    28    1
    23    27    29   ar
    24    29    30   ar
    25    30    31    1
    26    30    32   ar
    27    32    33   ar
    28    33    34    1
    29    17    18   ar
    30    18    19    1
    31    19    20    1
    32    19    21    1
    33    19    22    1
    34    18    13   ar
    35     6     1   ar
    36    33    26   ar
    37    11     4   ar
@<TRIPOS>MOLECULE
*****
 34 37 0 0 0
SMALL
GASTEIGER

@<TRIPOS>ATOM
      1 C          63.9614   85.6323   13.6519 C.ar    1  UNL1        0.1474
      2 C          64.3382   86.8137   14.4958 C.ar    1  UNL1        0.0390
      3 C          63.9632   88.1984   14.0577 C.ar    1  UNL1        0.0205
      4 C          63.2114   88.4017   12.7757 C.ar    1  UNL1        0.0662
      5 C          62.8347   87.2202   11.9318 C.ar    1  UNL1        0.0767
      6 C          63.2096   85.8355   12.3699 C.ar    1  UNL1        0.0438
      7 C          62.0829   87.4235   10.6498 C.ar    1  UNL1        0.2820
      8 O          61.7061   86.2421    9.8059 O.2     1  UNL1       -0.2651
      9 N          61.7079   88.8082   10.2117 N.ar    1  UNL1       -0.1873
     10 C          62.0847   89.9897   11.0556 C.ar    1  UNL1        0.1819
     11 N          62.8365   89.7864   12.3376 N.ar    1  UNL1       -0.3057
     12 O          64.3364   84.2475   14.0900 O.3     1  UNL1       -0.4360
     13 C          62.5367   81.2752   12.1726 C.ar    1  UNL1        0.1487
     14 C          61.5855   80.7923   13.2271 C.ar    1  UNL1        0.0577
     15 C          61.5513   81.4611   14.5693 C.ar    1  UNL1        0.1052
     16 N          62.4683   82.6129   14.8570 N.ar    1  UNL1       -0.2097
     17 C          63.4194   83.0958   13.8024 C.ar    1  UNL1        0.2365
     18 C          63.4536   82.4269   12.4602 C.ar    1  UNL1        0.1586
     19 C          64.4048   82.9098   11.4056 C.3     1  UNL1        0.4257
     20 F          65.3559   83.3927   10.3510 F       1  UNL1       -0.1656
     21 F          63.2695   83.5769   10.6871 F       1  UNL1       -0.1656
     22 F          65.5400   82.2428   12.1241 F       1  UNL1       -0.1656
     23 C          62.7642   79.1218   10.7369 C.3     1  UNL1        0.2525
     24 O          62.5709   80.6064   10.8304 O.3     1  UNL1       -0.4713
     25 C          63.2132   90.9679   13.1815 C.3     1  UNL1        0.1387
     26 C          64.6583   91.3187   13.3783 C.ar    1  UNL1        0.0555
     27 C          65.2825   91.1924   14.7364 C.ar    1  UNL1        0.1424
     28 F          64.4617   90.7153   15.8977 F       1  UNL1       -0.2043
     29 C          66.7276   91.5432   14.9332 C.ar    1  UNL1        0.0591
     30 C          67.5484   92.0202   13.7719 C.ar    1  UNL1        0.1446
     31 F          68.9935   92.3710   13.9687 F       1  UNL1       -0.2040
     32 C          66.9242   92.1465   12.4138 C.ar    1  UNL1        0.0591
     33 C          65.4792   91.7957   12.2170 C.ar    1  UNL1        0.1424
     34 F          64.8550   91.9220   10.8589 F       1  UNL1       -0.2043
@<TRIPOS>BOND
     1    23    24    1
     2    24    13    1
     3    13    14   ar
     4    14    15   ar
     5    15    16   ar
     6    16    17   ar
     7    17    12    1
     8    12     1    1
     9     1     2   ar
    10     2     3   ar
    11     3     4   ar
    12     4     5   ar
    13     5     6   ar
    14     5     7   ar
    15     7     8    2
    16     7     9   ar
    17     9    10   ar
    18    10    11   ar
    19    11    25    1
    20    25    26    1
    21    26    27   ar
    22    27    28    1
    23    27    29   ar
    24    29    30   ar
    25    30    31    1
    26    30    32   ar
    27    32    33   ar
    28    33    34    1
    29    17    18   ar
    30    18    19    1
    31    19    20    1
    32    19    21    1
    33    19    22    1
    34    18    13   ar
    35     6     1   ar
    36    33    26   ar
    37    11     4   ar
@<TRIPOS>MOLECULE
*****
 34 37 0 0 0
SMALL
GASTEIGER

@<TRIPOS>ATOM
      1 C          63.3442   86.0175   13.0633 C.ar    1  UNL1        0.1474
      2 C          63.8769   87.0364   14.0267 C.ar    1  UNL1        0.0390
      3 C          63.7820   88.4976   13.7016 C.ar    1  UNL1        0.0205
      4 C          63.1544   88.9400   12.4130 C.ar    1  UNL1        0.0662
      5 C          62.6217   87.9212   11.4496 C.ar    1  UNL1        0.0767
      6 C          62.7166   86.4600   11.7748 C.ar    1  UNL1        0.0438
      7 C          61.9941   88.3636   10.1611 C.ar    1  UNL1        0.2820
      8 O          61.4614   87.3448    9.1977 O.2     1  UNL1       -0.2651
      9 N          61.8992   89.8248    9.8359 N.ar    1  UNL1       -0.1873
     10 C          62.4320   90.8437   10.7993 C.ar    1  UNL1        0.1819
     11 N          63.0596   90.4013   12.0879 N.ar    1  UNL1       -0.3057
     12 O          63.4390   84.5562   13.3885 O.3     1  UNL1       -0.4360
     13 C          63.2069   81.1383   11.3850 C.ar    1  UNL1        0.1487
     14 C          63.8235   81.5345   10.0762 C.ar    1  UNL1        0.0577
     15 C          64.3119   82.9379    9.8715 C.ar    1  UNL1        0.1052
     16 N          64.1838   83.9452   10.9756 N.ar    1  UNL1       -0.2097
     17 C          63.5672   83.5490   12.2844 C.ar    1  UNL1        0.2365
     18 C          63.0788   82.1455   12.4891 C.ar    1  UNL1        0.1586
     19 C          62.4622   81.7494   13.7978 C.3     1  UNL1        0.4257
     20 F          61.8456   81.3532   15.1066 F       1  UNL1       -0.1656
     21 F          61.1277   81.6108   13.1272 F       1  UNL1       -0.1656
     22 F          63.7968   81.8880   14.4685 F       1  UNL1       -0.1656
     23 C          62.7396   78.7598   10.4501 C.3     1  UNL1        0.2525
     24 O          62.7185   79.7350   11.5897 O.3     1  UNL1       -0.4713
     25 C          63.5923   91.4201   13.0513 C.3     1  UNL1        0.1387
     26 C          65.0731   91.5964   13.2138 C.ar    1  UNL1        0.0555
     27 C          65.9069   92.0464   12.0509 C.ar    1  UNL1        0.1424
     28 F          65.2600   92.3200   10.7255 F       1  UNL1       -0.2043
     29 C          67.3875   92.2227   12.2134 C.ar    1  UNL1        0.0591
     30 C          68.0344   91.9490   13.5388 C.ar    1  UNL1        0.1446
     31 F          69.5152   92.1254   13.7013 F       1  UNL1       -0.2040
     32 C          67.2006   91.4991   14.7017 C.ar    1  UNL1        0.0591
     33 C          65.7200   91.3228   14.5391 C.ar    1  UNL1        0.1424
     34 F          64.8861   90.8728   15.7020 F       1  UNL1       -0.2043
@<TRIPOS>BOND
     1    23    24    1
     2    24    13    1
     3    13    14   ar
     4    14    15   ar
     5    15    16   ar
     6    16    17   ar
     7    17    12    1
     8    12     1    1
     9     1     2   ar
    10     2     3   ar
    11     3     4   ar
    12     4     5   ar
    13     5     6   ar
    14     5     7   ar
    15     7     8    2
    16     7     9   ar
    17     9    10   ar
    18    10    11   ar
    19    11    25    1
    20    25    26    1
    21    26    27   ar
    22    27    28    1
    23    27    29   ar
    24    29    30   ar
    25    30    31    1
    26    30    32   ar
    27    32    33   ar
    28    33    34    1
    29    17    18   ar
    30    18    19    1
    31    19    20    1
    32    19    21    1
    33    19    22    1
    34    18    13   ar
    35     6     1   ar
    36    33    26   ar
    37    11     4   ar
