@<TRIPOS>MOLECULE
*****
 56 62 0 0 0
SMALL
GASTEIGER

@<TRIPOS>ATOM
      1 N          63.0058   84.1252    9.4948 N.3     1  UNL1       -0.1862
      2 C          62.3987   84.1946    8.1250 C.3     1  UNL1        0.1775
      3 C          61.5288   85.3570    7.7482 C.2     1  UNL1        0.2452
      4 O          60.9216   85.4264    6.3782 O.2     1  UNL1       -0.2732
      5 N          61.2659   86.4501    8.7412 N.am    1  UNL1       -0.2541
      6 C          60.3960   87.6125    8.3644 C.3     1  UNL1        0.1577
      7 C          60.1331   88.7055    9.3575 C.2     1  UNL1        0.2445
      8 O          59.2632   89.8679    8.9807 O.2     1  UNL1       -0.2731
      9 N          60.7402   88.6361   10.7274 N.am    1  UNL1       -0.2705
     10 C          61.6102   87.4737   11.1042 C.3     1  UNL1        0.1359
     11 C          61.8730   86.3807   10.1111 C.3     1  UNL1        0.1908
     12 N          62.7430   85.2183   10.4879 N.am    1  UNL1       -0.1863
     13 C          63.3501   85.1489   11.8578 C.2     1  UNL1        0.3191
     14 O          63.0873   86.2419   12.8509 O.2     1  UNL1       -0.2512
     15 N          64.2201   83.9865   12.2346 N.am    1  UNL1       -0.2836
     16 H          64.3926   83.2691   11.5828 H       1  UNL1        0.1513
     17 C          63.8758   82.9628    9.8716 C.3     1  UNL1        0.1188
     18 C          62.8170   81.2878   11.5518 C.2     1  UNL1       -0.0034
     19 C          63.2586   81.6262   10.1589 C.2     1  UNL1       -0.0071
     20 C          59.7889   87.6819    6.9946 C.3     1  UNL1        0.0556
     21 C          59.5534   89.0133    6.3451 C.ar    1  UNL1       -0.0198
     22 C          60.7125   89.8063    5.8183 C.ar    1  UNL1       -0.0011
     23 C          60.4770   91.1377    5.1688 C.ar    1  UNL1        0.0363
     24 C          59.0825   91.6762    5.0462 C.ar    1  UNL1        0.1337
     25 O          58.8470   93.0077    4.3968 O.3     1  UNL1       -0.5055
     26 C          57.9232   90.8833    5.5731 C.ar    1  UNL1        0.0363
     27 C          58.1587   89.5518    6.2225 C.ar    1  UNL1       -0.0011
     28 H          59.5711   93.5030    4.0676 H       1  UNL1        0.2922
     29 C          60.4774   89.7291   11.7205 C.3     1  UNL1        0.1217
     30 C          61.4012   89.9211   12.8866 C.ar    1  UNL1        0.0135
     31 C          61.0148   89.4076   14.2420 C.ar    1  UNL1       -0.0012
     32 C          61.9385   89.5996   15.4081 C.ar    1  UNL1       -0.0002
     33 C          63.2487   90.3050   15.2188 C.ar    1  UNL1        0.0016
     34 C          63.6351   90.8184   13.8634 C.ar    1  UNL1        0.0199
     35 C          64.8521   91.5470   13.3756 C.ar    1  UNL1        0.0531
     36 C          64.6805   91.8054   11.9080 C.ar    1  UNL1        0.0790
     37 N          63.3575   91.2365   11.4889 N.ar    1  UNL1       -0.3242
     38 C          62.7816   91.2714   10.1043 C.3     1  UNL1        0.1305
     39 C          62.7114   90.6265   12.6973 C.ar    1  UNL1        0.0576
     40 C          66.0334   91.9471   14.2091 C.ar    1  UNL1        0.1470
     41 C          66.0721   92.0180   15.7070 C.ar    1  UNL1        0.0408
     42 C          67.4459   92.4611   16.1146 C.ar    1  UNL1        0.0453
     43 C          68.2563   92.6641   14.8689 C.ar    1  UNL1        0.1986
     44 O          67.3833   92.3463   13.6912 O.2     1  UNL1       -0.4488
     45 C          69.6883   93.1069   14.8109 C.2     1  UNL1        0.2839
     46 O          70.6768   92.3421   13.9816 O.2     1  UNL1       -0.2666
     47 N          70.1315   94.3147   15.5822 N.am    1  UNL1       -0.2701
     48 C          71.5635   94.7575   15.5243 C.3     1  UNL1        0.1153
     49 C          69.1430   95.0795   16.4115 C.3     1  UNL1        0.1153
     50 C          64.8272   83.9171   13.6045 C.3     1  UNL1        0.1177
     51 C          64.1796   84.6383   14.7493 C.ar    1  UNL1       -0.0025
     52 C          62.9924   84.0357   15.4400 C.ar    1  UNL1       -0.0026
     53 C          62.3448   84.7569   16.5848 C.ar    1  UNL1       -0.0003
     54 C          62.8845   86.0807   17.0388 C.ar    1  UNL1       -0.0000
     55 C          64.0719   86.6834   16.3481 C.ar    1  UNL1       -0.0003
     56 C          64.7194   85.9622   15.2033 C.ar    1  UNL1       -0.0026
@<TRIPOS>BOND
     1    18    19    2
     2    19    17    1
     3    17     1    1
     4     1     2    1
     5     2     3    1
     6     3     4    2
     7     3     5   am
     8     5     6    1
     9     6    20    1
    10    20    21    1
    11    21    22   ar
    12    22    23   ar
    13    23    24   ar
    14    24    25    1
    15    24    26   ar
    16    26    27   ar
    17     6     7    1
    18     7     8    2
    19     7     9   am
    20     9    29    1
    21    29    30    1
    22    30    31   ar
    23    31    32   ar
    24    32    33   ar
    25    33    34   ar
    26    34    35   ar
    27    35    40    1
    28    40    41   ar
    29    41    42   ar
    30    42    43   ar
    31    43    45    1
    32    45    46    2
    33    45    47   am
    34    47    48    1
    35    47    49    1
    36    43    44   ar
    37    35    36   ar
    38    36    37   ar
    39    37    38    1
    40    37    39   ar
    41     9    10    1
    42    11    10    1
    43    11    12    1
    44    12    13   am
    45    13    14    2
    46    13    15   am
    47    15    50    1
    48    50    51    1
    49    51    52   ar
    50    52    53   ar
    51    53    54   ar
    52    54    55   ar
    53    55    56   ar
    54    12     1    1
    55    56    51   ar
    56    11     5    1
    57    27    21   ar
    58    39    30   ar
    59    39    34   ar
    60    44    40   ar
    61    25    28    1
    62    15    16    1
@<TRIPOS>MOLECULE
*****
 56 62 0 0 0
SMALL
GASTEIGER

@<TRIPOS>ATOM
      1 N          62.3775   84.2190    9.6862 N.3     1  UNL1       -0.1862
      2 C          61.6139   84.2318    8.3952 C.3     1  UNL1        0.1775
      3 C          60.9387   85.4898    7.9355 C.2     1  UNL1        0.2452
      4 O          60.1751   85.5025    6.6444 O.2     1  UNL1       -0.2732
      5 N          61.0270   86.7352    8.7669 N.am    1  UNL1       -0.2541
      6 C          60.3517   87.9933    8.3073 C.3     1  UNL1        0.1577
      7 C          60.4400   89.2386    9.1386 C.2     1  UNL1        0.2445
      8 O          59.7647   90.4967    8.6790 O.2     1  UNL1       -0.2731
      9 N          61.2036   89.2260   10.4297 N.am    1  UNL1       -0.2705
     10 C          61.8788   87.9679   10.8894 C.3     1  UNL1        0.1359
     11 C          61.7905   86.7225   10.0579 C.3     1  UNL1        0.1908
     12 N          62.4658   85.4644   10.5176 N.am    1  UNL1       -0.1863
     13 C          63.2293   85.4517   11.8087 C.2     1  UNL1        0.3191
     14 O          63.3176   86.6971   12.6401 O.2     1  UNL1       -0.2512
     15 N          63.9046   84.1937   12.2683 N.am    1  UNL1       -0.2836
     16 H          63.8466   83.3763   11.7227 H       1  UNL1        0.1513
     17 C          63.0527   82.9610   10.1459 C.3     1  UNL1        0.1188
     18 C          63.0997   80.8655   11.6811 C.2     1  UNL1       -0.0034
     19 C          62.4004   82.0955   11.1828 C.2     1  UNL1       -0.0071
     20 C          59.5882   88.0060    7.0162 C.3     1  UNL1        0.0556
     21 C          59.4866   89.2715    6.2173 C.ar    1  UNL1       -0.0198
     22 C          58.1538   89.9320    6.0249 C.ar    1  UNL1       -0.0011
     23 C          58.0523   91.1975    5.2260 C.ar    1  UNL1        0.0363
     24 C          59.2836   91.8024    4.6195 C.ar    1  UNL1        0.1337
     25 O          59.1821   93.0679    3.8206 O.3     1  UNL1       -0.5055
     26 C          60.6166   91.1419    4.8120 C.ar    1  UNL1        0.0363
     27 C          60.7181   89.8764    5.6109 C.ar    1  UNL1       -0.0011
     28 H          58.3495   93.4806    3.7004 H       1  UNL1        0.2922
     29 C          61.2919   90.4713   11.2611 C.3     1  UNL1        0.1217
     30 C          62.6159   91.1475   11.4608 C.ar    1  UNL1        0.0135
     31 C          63.2263   91.9451   10.3467 C.ar    1  UNL1       -0.0012
     32 C          64.5503   92.6212   10.5464 C.ar    1  UNL1       -0.0002
     33 C          65.2638   92.4998   11.8602 C.ar    1  UNL1        0.0016
     34 C          64.6534   91.7022   12.9743 C.ar    1  UNL1        0.0199
     35 C          65.1191   91.4065   14.3692 C.ar    1  UNL1        0.0531
     36 C          64.0830   90.5476   15.0315 C.ar    1  UNL1        0.0790
     37 N          62.9769   90.3125   14.0461 N.ar    1  UNL1       -0.3242
     38 C          61.7361   89.5055   14.2893 C.3     1  UNL1        0.1305
     39 C          63.3294   91.0261   12.7746 C.ar    1  UNL1        0.0576
     40 C          66.3968   91.8856   14.9923 C.ar    1  UNL1        0.1470
     41 C          66.6970   91.9350   16.4611 C.ar    1  UNL1        0.0408
     42 C          68.0842   92.4793   16.6325 C.ar    1  UNL1        0.0453
     43 C          68.6413   92.7664   15.2698 C.ar    1  UNL1        0.1986
     44 O          67.5983   92.3995   14.2560 O.2     1  UNL1       -0.4488
     45 C          70.0023   93.3227   14.9728 C.2     1  UNL1        0.2839
     46 O          70.9521   92.5560   14.1012 O.2     1  UNL1       -0.2666
     47 N          70.4133   94.6459   15.5476 N.am    1  UNL1       -0.2701
     48 C          71.7743   95.2022   15.2507 C.3     1  UNL1        0.1153
     49 C          69.4635   95.4127   16.4193 C.3     1  UNL1        0.1153
     50 C          64.6681   84.1810   13.5594 C.3     1  UNL1        0.1177
     51 C          64.1014   84.8569   14.7726 C.ar    1  UNL1       -0.0025
     52 C          64.6218   86.1987   15.1954 C.ar    1  UNL1       -0.0026
     53 C          64.0551   86.8747   16.4086 C.ar    1  UNL1       -0.0003
     54 C          62.9680   86.2089   17.1990 C.ar    1  UNL1       -0.0000
     55 C          62.4475   84.8671   16.7763 C.ar    1  UNL1       -0.0003
     56 C          63.0142   84.1911   15.5630 C.ar    1  UNL1       -0.0026
@<TRIPOS>BOND
     1    18    19    2
     2    19    17    1
     3    17     1    1
     4     1     2    1
     5     2     3    1
     6     3     4    2
     7     3     5   am
     8     5     6    1
     9     6    20    1
    10    20    21    1
    11    21    22   ar
    12    22    23   ar
    13    23    24   ar
    14    24    25    1
    15    24    26   ar
    16    26    27   ar
    17     6     7    1
    18     7     8    2
    19     7     9   am
    20     9    29    1
    21    29    30    1
    22    30    31   ar
    23    31    32   ar
    24    32    33   ar
    25    33    34   ar
    26    34    35   ar
    27    35    40    1
    28    40    41   ar
    29    41    42   ar
    30    42    43   ar
    31    43    45    1
    32    45    46    2
    33    45    47   am
    34    47    48    1
    35    47    49    1
    36    43    44   ar
    37    35    36   ar
    38    36    37   ar
    39    37    38    1
    40    37    39   ar
    41     9    10    1
    42    11    10    1
    43    11    12    1
    44    12    13   am
    45    13    14    2
    46    13    15   am
    47    15    50    1
    48    50    51    1
    49    51    52   ar
    50    52    53   ar
    51    53    54   ar
    52    54    55   ar
    53    55    56   ar
    54    12     1    1
    55    56    51   ar
    56    11     5    1
    57    27    21   ar
    58    39    30   ar
    59    39    34   ar
    60    44    40   ar
    61    25    28    1
    62    15    16    1
@<TRIPOS>MOLECULE
*****
 56 62 0 0 0
SMALL
GASTEIGER

@<TRIPOS>ATOM
      1 N          65.4631   89.1039   14.5889 N.3     1  UNL1       -0.1862
      2 C          65.6982   87.8444   15.3688 C.3     1  UNL1        0.1775
      3 C          64.9131   86.6069   15.0494 C.2     1  UNL1        0.2452
      4 O          65.1483   85.3473   15.8293 O.2     1  UNL1       -0.2732
      5 N          63.8927   86.6289   13.9501 N.am    1  UNL1       -0.2541
      6 C          63.1076   85.3913   13.6307 C.3     1  UNL1        0.1577
      7 C          62.0872   85.4133   12.5315 C.2     1  UNL1        0.2445
      8 O          61.3021   84.1758   12.2121 O.2     1  UNL1       -0.2731
      9 N          61.8520   86.6729   11.7516 N.am    1  UNL1       -0.2705
     10 C          62.6372   87.9104   12.0710 C.3     1  UNL1        0.1359
     11 C          63.6576   87.8884   13.1703 C.3     1  UNL1        0.1908
     12 N          64.4427   89.1259   13.4897 N.am    1  UNL1       -0.1863
     13 C          64.2075   90.3855   12.7097 C.2     1  UNL1        0.3191
     14 O          63.1872   90.4075   11.6105 O.2     1  UNL1       -0.2512
     15 N          64.9927   91.6231   13.0291 N.am    1  UNL1       -0.2836
     16 H          65.6623   91.6086   13.7506 H       1  UNL1        0.1513
     17 C          66.2482   90.3415   14.9083 C.3     1  UNL1        0.1188
     18 C          66.3933   92.6879   16.0144 C.2     1  UNL1       -0.0034
     19 C          65.6441   91.4120   15.7680 C.2     1  UNL1       -0.0071
     20 C          63.3427   84.1318   14.4106 C.3     1  UNL1        0.0556
     21 C          63.1464   82.7966   13.7558 C.ar    1  UNL1       -0.0198
     22 C          62.1903   81.8041   14.3481 C.ar    1  UNL1       -0.0011
     23 C          61.9940   80.4689   13.6934 C.ar    1  UNL1        0.0363
     24 C          62.7538   80.1261   12.4464 C.ar    1  UNL1        0.1337
     25 O          62.5575   78.7909   11.7917 O.3     1  UNL1       -0.5055
     26 C          63.7100   81.1186   11.8540 C.ar    1  UNL1        0.0363
     27 C          63.9063   82.4538   12.5087 C.ar    1  UNL1       -0.0011
     28 H          61.9602   78.1710   12.1617 H       1  UNL1        0.2922
     29 C          60.8317   86.6949   10.6523 C.3     1  UNL1        0.1217
     30 C          60.3924   88.0024   10.0628 C.ar    1  UNL1        0.0135
     31 C          60.1248   89.1763   10.9574 C.ar    1  UNL1       -0.0012
     32 C          59.6856   90.4838   10.3680 C.ar    1  UNL1       -0.0002
     33 C          59.5138   90.6174    8.8839 C.ar    1  UNL1        0.0016
     34 C          59.7814   89.4435    7.9892 C.ar    1  UNL1        0.0199
     35 C          59.6982   89.2763    6.5009 C.ar    1  UNL1        0.0531
     36 C          60.0861   87.8655    6.1706 C.ar    1  UNL1        0.0790
     37 N          60.4090   87.1608    7.4547 N.ar    1  UNL1       -0.3242
     38 C          60.8438   85.7317    7.5909 C.3     1  UNL1        0.1305
     39 C          60.2206   88.1360    8.5787 C.ar    1  UNL1        0.0576
     40 C          59.2975   90.3343    5.5158 C.ar    1  UNL1        0.1470
     41 C          57.9181   90.8960    5.3377 C.ar    1  UNL1        0.0408
     42 C          57.9739   91.9250    4.2478 C.ar    1  UNL1        0.0453
     43 C          59.3877   91.9994    3.7524 C.ar    1  UNL1        0.1986
     44 O          60.2058   91.0162    4.5361 O.2     1  UNL1       -0.4488
     45 C          59.8946   92.8989    2.6643 C.2     1  UNL1        0.2839
     46 O          58.9411   93.7848    1.9186 O.2     1  UNL1       -0.2666
     47 N          61.3550   92.9124    2.3219 N.am    1  UNL1       -0.2701
     48 C          61.8618   93.8119    1.2338 C.3     1  UNL1        0.1153
     49 C          62.3085   92.0265    3.0675 C.3     1  UNL1        0.1153
     50 C          64.7575   92.8826   12.2493 C.3     1  UNL1        0.1177
     51 C          65.7819   93.3549   11.2606 C.ar    1  UNL1       -0.0025
     52 C          66.7862   92.3906   10.7026 C.ar    1  UNL1       -0.0026
     53 C          67.8106   92.8629    9.7140 C.ar    1  UNL1       -0.0003
     54 C          67.8308   94.2996    9.2833 C.ar    1  UNL1       -0.0000
     55 C          66.8265   95.2640    9.8413 C.ar    1  UNL1       -0.0003
     56 C          65.8020   94.7917   10.8300 C.ar    1  UNL1       -0.0026
@<TRIPOS>BOND
     1    18    19    2
     2    19    17    1
     3    17     1    1
     4     1     2    1
     5     2     3    1
     6     3     4    2
     7     3     5   am
     8     5     6    1
     9     6    20    1
    10    20    21    1
    11    21    22   ar
    12    22    23   ar
    13    23    24   ar
    14    24    25    1
    15    24    26   ar
    16    26    27   ar
    17     6     7    1
    18     7     8    2
    19     7     9   am
    20     9    29    1
    21    29    30    1
    22    30    31   ar
    23    31    32   ar
    24    32    33   ar
    25    33    34   ar
    26    34    35   ar
    27    35    40    1
    28    40    41   ar
    29    41    42   ar
    30    42    43   ar
    31    43    45    1
    32    45    46    2
    33    45    47   am
    34    47    48    1
    35    47    49    1
    36    43    44   ar
    37    35    36   ar
    38    36    37   ar
    39    37    38    1
    40    37    39   ar
    41     9    10    1
    42    11    10    1
    43    11    12    1
    44    12    13   am
    45    13    14    2
    46    13    15   am
    47    15    50    1
    48    50    51    1
    49    51    52   ar
    50    52    53   ar
    51    53    54   ar
    52    54    55   ar
    53    55    56   ar
    54    12     1    1
    55    56    51   ar
    56    11     5    1
    57    27    21   ar
    58    39    30   ar
    59    39    34   ar
    60    44    40   ar
    61    25    28    1
    62    15    16    1
@<TRIPOS>MOLECULE
*****
 56 62 0 0 0
SMALL
GASTEIGER

@<TRIPOS>ATOM
      1 N          64.0126   86.3543   15.7607 N.3     1  UNL1       -0.1862
      2 C          64.1930   84.9019   16.0893 C.3     1  UNL1        0.1775
      3 C          63.9408   83.8589   15.0412 C.2     1  UNL1        0.2452
      4 O          64.1212   82.4065   15.3698 O.2     1  UNL1       -0.2732
      5 N          63.5083   84.2683   13.6645 N.am    1  UNL1       -0.2541
      6 C          63.2562   83.2253   12.6164 C.3     1  UNL1        0.1577
      7 C          62.8237   83.6347   11.2397 C.2     1  UNL1        0.2445
      8 O          62.5716   82.5917   10.1915 O.2     1  UNL1       -0.2731
      9 N          62.6434   85.0871   10.9111 N.am    1  UNL1       -0.2705
     10 C          62.8955   86.1301   11.9592 C.3     1  UNL1        0.1359
     11 C          63.3280   85.7207   13.3359 C.3     1  UNL1        0.1908
     12 N          63.5801   86.7637   14.3841 N.am    1  UNL1       -0.1863
     13 C          63.3998   88.2161   14.0554 C.2     1  UNL1        0.3191
     14 O          62.9673   88.6255   12.6788 O.2     1  UNL1       -0.2512
     15 N          63.6519   89.2591   15.1036 N.am    1  UNL1       -0.2836
     16 H          63.9358   88.9904   16.0071 H       1  UNL1        0.1513
     17 C          64.2648   87.3973   16.8089 C.3     1  UNL1        0.1188
     18 C          62.5619   86.7759   18.6701 C.2     1  UNL1       -0.0034
     19 C          63.1671   87.7949   17.7506 C.2     1  UNL1       -0.0071
     20 C          63.4365   81.7729   12.9449 C.3     1  UNL1        0.0556
     21 C          62.2549   80.9439   13.3530 C.ar    1  UNL1       -0.0198
     22 C          61.0068   81.6108   13.8505 C.ar    1  UNL1       -0.0011
     23 C          59.8252   80.7818   14.2586 C.ar    1  UNL1        0.0363
     24 C          59.8917   79.2860   14.1693 C.ar    1  UNL1        0.1337
     25 O          58.7101   78.4570   14.5774 O.3     1  UNL1       -0.5055
     26 C          61.1399   78.6190   13.6719 C.ar    1  UNL1        0.0363
     27 C          62.3215   79.4480   13.2637 C.ar    1  UNL1       -0.0011
     28 H          57.9304   78.8736   14.8882 H       1  UNL1        0.2922
     29 C          62.2109   85.4965    9.5344 C.3     1  UNL1        0.1217
     30 C          61.8738   86.9302    9.2494 C.ar    1  UNL1        0.0135
     31 C          62.4127   88.0170   10.1317 C.ar    1  UNL1       -0.0012
     32 C          62.0757   89.4506    9.8468 C.ar    1  UNL1       -0.0002
     33 C          61.1998   89.7973    8.6795 C.ar    1  UNL1        0.0016
     34 C          60.6609   88.7105    7.7972 C.ar    1  UNL1        0.0199
     35 C          59.7800   88.7472    6.5837 C.ar    1  UNL1        0.0531
     36 C          59.5725   87.3363    6.1187 C.ar    1  UNL1        0.0790
     37 N          60.3252   86.4277    7.0447 N.ar    1  UNL1       -0.3242
     38 C          60.3934   84.9322    6.9501 C.3     1  UNL1        0.1305
     39 C          60.9979   87.2770    8.0821 C.ar    1  UNL1        0.0576
     40 C          59.2070   89.9787    5.9470 C.ar    1  UNL1        0.1470
     41 C          57.7493   90.3093    5.8210 C.ar    1  UNL1        0.0408
     42 C          57.6326   91.6306    5.1207 C.ar    1  UNL1        0.0453
     43 C          59.0181   92.1167    4.8139 C.ar    1  UNL1        0.1986
     44 O          59.9911   91.0957    5.3246 O.2     1  UNL1       -0.4488
     45 C          59.3689   93.3986    4.1185 C.2     1  UNL1        0.2839
     46 O          59.1143   94.7128    4.7951 O.2     1  UNL1       -0.2666
     47 N          59.9744   93.3661    2.7465 N.am    1  UNL1       -0.2701
     48 C          60.3252   94.6480    2.0511 C.3     1  UNL1        0.1153
     49 C          60.2290   92.0518    2.0699 C.3     1  UNL1        0.1153
     50 C          63.4716   90.7115   14.7750 C.3     1  UNL1        0.1177
     51 C          64.4988   91.4267   13.9484 C.ar    1  UNL1       -0.0025
     52 C          65.8054   91.8331   14.5628 C.ar    1  UNL1       -0.0026
     53 C          66.8327   92.5483   13.7361 C.ar    1  UNL1       -0.0003
     54 C          66.5533   92.8569   12.2951 C.ar    1  UNL1       -0.0000
     55 C          65.2467   92.4505   11.6806 C.ar    1  UNL1       -0.0003
     56 C          64.2194   91.7353   12.5073 C.ar    1  UNL1       -0.0026
@<TRIPOS>BOND
     1    18    19    2
     2    19    17    1
     3    17     1    1
     4     1     2    1
     5     2     3    1
     6     3     4    2
     7     3     5   am
     8     5     6    1
     9     6    20    1
    10    20    21    1
    11    21    22   ar
    12    22    23   ar
    13    23    24   ar
    14    24    25    1
    15    24    26   ar
    16    26    27   ar
    17     6     7    1
    18     7     8    2
    19     7     9   am
    20     9    29    1
    21    29    30    1
    22    30    31   ar
    23    31    32   ar
    24    32    33   ar
    25    33    34   ar
    26    34    35   ar
    27    35    40    1
    28    40    41   ar
    29    41    42   ar
    30    42    43   ar
    31    43    45    1
    32    45    46    2
    33    45    47   am
    34    47    48    1
    35    47    49    1
    36    43    44   ar
    37    35    36   ar
    38    36    37   ar
    39    37    38    1
    40    37    39   ar
    41     9    10    1
    42    11    10    1
    43    11    12    1
    44    12    13   am
    45    13    14    2
    46    13    15   am
    47    15    50    1
    48    50    51    1
    49    51    52   ar
    50    52    53   ar
    51    53    54   ar
    52    54    55   ar
    53    55    56   ar
    54    12     1    1
    55    56    51   ar
    56    11     5    1
    57    27    21   ar
    58    39    30   ar
    59    39    34   ar
    60    44    40   ar
    61    25    28    1
    62    15    16    1
