@<TRIPOS>MOLECULE
*****
 21 23 0 0 0
SMALL
GASTEIGER

@<TRIPOS>ATOM
      1 C          62.3529   86.1604   11.4203 C.ar    1  UNL1        0.1397
      2 C          62.4882   87.6522   11.3406 C.ar    1  UNL1        0.0515
      3 C          63.2287   88.3964   12.4119 C.ar    1  UNL1        0.0529
      4 C          63.8339   87.6489   13.5630 C.ar    1  UNL1       -0.0078
      5 C          63.6985   86.1572   13.6427 C.ar    1  UNL1        0.0000
      6 C          62.9580   85.4130   12.5714 C.ar    1  UNL1        0.0353
      7 C          64.5744   88.3932   14.6343 C.3     1  UNL1        0.0372
      8 C          64.7097   89.8849   14.5546 C.3     1  UNL1        0.0903
      9 C          64.1045   90.6325   13.4034 C.2     1  UNL1        0.2297
     10 O          64.2398   92.1242   13.3237 O.2     1  UNL1       -0.2745
     11 N          63.3640   89.8882   12.3321 N.am    1  UNL1       -0.2571
     12 C          62.7588   90.6357   11.1810 C.3     1  UNL1        0.1200
     13 C          62.8227   83.9212   12.6512 C.ar    1  UNL1        0.0221
     14 C          63.1717   83.0719   11.4650 C.ar    1  UNL1        0.0032
     15 C          63.0365   81.5802   11.5447 C.ar    1  UNL1        0.0207
     16 C          62.5522   80.9376   12.8107 C.ar    1  UNL1        0.0989
     17 N          62.2032   81.7868   13.9969 N.ar    1  UNL1       -0.2423
     18 C          62.3385   83.2786   13.9171 C.ar    1  UNL1        0.0989
     19 O          61.6124   85.4162   10.3490 O.3     1  UNL1       -0.4754
     20 C          63.0938   85.2996    8.2179 C.3     1  UNL1        0.0512
     21 C          61.8409   85.7547    8.9057 C.3     1  UNL1        0.2055
@<TRIPOS>BOND
     1    20    21    1
     2    21    19    1
     3    19     1    1
     4     1     2   ar
     5     2     3   ar
     6     3     4   ar
     7     4     5   ar
     8     5     6   ar
     9     6    13    1
    10    13    14   ar
    11    14    15   ar
    12    15    16   ar
    13    16    17   ar
    14    17    18   ar
    15     4     7    1
    16     7     8    1
    17     8     9    1
    18     9    10    2
    19     9    11   am
    20    11    12    1
    21     6     1   ar
    22    18    13   ar
    23    11     3    1
@<TRIPOS>MOLECULE
*****
 21 23 0 0 0
SMALL
GASTEIGER

@<TRIPOS>ATOM
      1 C          63.7176   89.5503   13.1027 C.ar    1  UNL1        0.1397
      2 C          64.0918   90.7124   12.2313 C.ar    1  UNL1        0.0515
      3 C          64.9935   91.7876   12.7613 C.ar    1  UNL1        0.0529
      4 C          65.5210   91.7006   14.1628 C.ar    1  UNL1       -0.0078
      5 C          65.1468   90.5385   15.0342 C.ar    1  UNL1        0.0000
      6 C          64.2451   89.4634   14.5042 C.ar    1  UNL1        0.0353
      7 C          66.4228   92.7758   14.6928 C.3     1  UNL1        0.0372
      8 C          66.7970   93.9379   13.8214 C.3     1  UNL1        0.0903
      9 C          66.2694   94.0249   12.4198 C.2     1  UNL1        0.2297
     10 O          66.6436   95.1870   11.5484 O.2     1  UNL1       -0.2745
     11 N          65.3677   92.9497   11.8898 N.am    1  UNL1       -0.2571
     12 C          64.8402   93.0367   10.4884 C.3     1  UNL1        0.1200
     13 C          63.8709   88.3012   15.3757 C.ar    1  UNL1        0.0221
     14 C          63.0915   88.5298   16.6367 C.ar    1  UNL1        0.0032
     15 C          62.7173   87.3678   17.5082 C.ar    1  UNL1        0.0207
     16 C          63.1225   85.9770   17.1187 C.ar    1  UNL1        0.0989
     17 N          63.9019   85.7484   15.8576 N.ar    1  UNL1       -0.2423
     18 C          64.2761   86.9105   14.9861 C.ar    1  UNL1        0.0989
     19 O          62.8158   88.4752   12.5727 O.3     1  UNL1       -0.4754
     20 C          62.0460   87.2152   10.4350 C.3     1  UNL1        0.0512
     21 C          62.3869   88.4970   11.1355 C.3     1  UNL1        0.2055
@<TRIPOS>BOND
     1    20    21    1
     2    21    19    1
     3    19     1    1
     4     1     2   ar
     5     2     3   ar
     6     3     4   ar
     7     4     5   ar
     8     5     6   ar
     9     6    13    1
    10    13    14   ar
    11    14    15   ar
    12    15    16   ar
    13    16    17   ar
    14    17    18   ar
    15     4     7    1
    16     7     8    1
    17     8     9    1
    18     9    10    2
    19     9    11   am
    20    11    12    1
    21     6     1   ar
    22    18    13   ar
    23    11     3    1
@<TRIPOS>MOLECULE
*****
 21 23 0 0 0
SMALL
GASTEIGER

@<TRIPOS>ATOM
      1 C          63.3679   89.2929   12.8029 C.ar    1  UNL1        0.1397
      2 C          62.8723   88.0780   12.0761 C.ar    1  UNL1        0.0515
      3 C          63.1767   86.7092   12.6087 C.ar    1  UNL1        0.0529
      4 C          63.9767   86.5553   13.8682 C.ar    1  UNL1       -0.0078
      5 C          64.4724   87.7702   14.5950 C.ar    1  UNL1        0.0000
      6 C          64.1679   89.1390   14.0623 C.ar    1  UNL1        0.0353
      7 C          64.2811   85.1865   14.4008 C.3     1  UNL1        0.0372
      8 C          63.7855   83.9716   13.6740 C.3     1  UNL1        0.0903
      9 C          62.9855   84.1254   12.4145 C.2     1  UNL1        0.2297
     10 O          62.4898   82.9105   11.6877 O.2     1  UNL1       -0.2745
     11 N          62.6811   85.4942   11.8819 N.am    1  UNL1       -0.2571
     12 C          61.8810   85.6481   10.6224 C.3     1  UNL1        0.1200
     13 C          64.6636   90.3540   14.7892 C.ar    1  UNL1        0.0221
     14 C          65.9708   90.9790   14.4009 C.ar    1  UNL1        0.0032
     15 C          66.4664   92.1939   15.1277 C.ar    1  UNL1        0.0207
     16 C          65.6549   92.7839   16.2429 C.ar    1  UNL1        0.0989
     17 N          64.3478   92.1589   16.6312 N.ar    1  UNL1       -0.2423
     18 C          63.8521   90.9439   15.9043 C.ar    1  UNL1        0.0989
     19 O          63.0635   90.6617   12.2703 O.3     1  UNL1       -0.4754
     20 C          64.7101   92.1183   10.8857 C.3     1  UNL1        0.0512
     21 C          63.6185   91.0912   10.9446 C.3     1  UNL1        0.2055
@<TRIPOS>BOND
     1    20    21    1
     2    21    19    1
     3    19     1    1
     4     1     2   ar
     5     2     3   ar
     6     3     4   ar
     7     4     5   ar
     8     5     6   ar
     9     6    13    1
    10    13    14   ar
    11    14    15   ar
    12    15    16   ar
    13    16    17   ar
    14    17    18   ar
    15     4     7    1
    16     7     8    1
    17     8     9    1
    18     9    10    2
    19     9    11   am
    20    11    12    1
    21     6     1   ar
    22    18    13   ar
    23    11     3    1
@<TRIPOS>MOLECULE
*****
 21 23 0 0 0
SMALL
GASTEIGER

@<TRIPOS>ATOM
      1 C          63.5483   85.6302   13.6654 C.ar    1  UNL1        0.1397
      2 C          63.6587   87.1062   13.4221 C.ar    1  UNL1        0.0515
      3 C          63.0416   87.7126   12.1968 C.ar    1  UNL1        0.0529
      4 C          62.3140   86.8430   11.2148 C.ar    1  UNL1       -0.0078
      5 C          62.2036   85.3670   11.4580 C.ar    1  UNL1        0.0000
      6 C          62.8208   84.7606   12.6833 C.ar    1  UNL1        0.0353
      7 C          61.6969   87.4494    9.9894 C.3     1  UNL1        0.0372
      8 C          61.8073   88.9254    9.7462 C.3     1  UNL1        0.0903
      9 C          62.5349   89.7950   10.7282 C.2     1  UNL1        0.2297
     10 O          62.6453   91.2710   10.4850 O.2     1  UNL1       -0.2745
     11 N          63.1520   89.1886   11.9535 N.am    1  UNL1       -0.2571
     12 C          63.8796   90.0582   12.9356 C.3     1  UNL1        0.1200
     13 C          62.7104   83.2845   12.9266 C.ar    1  UNL1        0.0221
     14 C          63.0143   82.3174   11.8210 C.ar    1  UNL1        0.0032
     15 C          62.9039   80.8414   12.0642 C.ar    1  UNL1        0.0207
     16 C          62.4895   80.3324   13.4130 C.ar    1  UNL1        0.0989
     17 N          62.1856   81.2995   14.5186 N.ar    1  UNL1       -0.2423
     18 C          62.2961   82.7756   14.2754 C.ar    1  UNL1        0.0989
     19 O          64.1655   85.0238   14.8907 O.3     1  UNL1       -0.4754
     20 C          62.5420   85.6615   16.8162 C.3     1  UNL1        0.0512
     21 C          63.9251   85.6422   16.2360 C.3     1  UNL1        0.2055
@<TRIPOS>BOND
     1    20    21    1
     2    21    19    1
     3    19     1    1
     4     1     2   ar
     5     2     3   ar
     6     3     4   ar
     7     4     5   ar
     8     5     6   ar
     9     6    13    1
    10    13    14   ar
    11    14    15   ar
    12    15    16   ar
    13    16    17   ar
    14    17    18   ar
    15     4     7    1
    16     7     8    1
    17     8     9    1
    18     9    10    2
    19     9    11   am
    20    11    12    1
    21     6     1   ar
    22    18    13   ar
    23    11     3    1
@<TRIPOS>MOLECULE
*****
 21 23 0 0 0
SMALL
GASTEIGER

@<TRIPOS>ATOM
      1 C          63.8859   88.4112   13.5090 C.ar    1  UNL1        0.1397
      2 C          63.1433   87.4953   12.5819 C.ar    1  UNL1        0.0515
      3 C          62.3716   88.0617   11.4270 C.ar    1  UNL1        0.0529
      4 C          62.3427   89.5439   11.1991 C.ar    1  UNL1       -0.0078
      5 C          63.0853   90.4599   12.1262 C.ar    1  UNL1        0.0000
      6 C          63.8570   89.8935   13.2811 C.ar    1  UNL1        0.0353
      7 C          61.5710   90.1103   10.0442 C.3     1  UNL1        0.0372
      8 C          60.8284   89.1944    9.1171 C.3     1  UNL1        0.0903
      9 C          60.8573   87.7120    9.3450 C.2     1  UNL1        0.2297
     10 O          60.1147   86.7961    8.4179 O.2     1  UNL1       -0.2745
     11 N          61.6290   87.1457   10.4999 N.am    1  UNL1       -0.2571
     12 C          61.6579   85.6634   10.7277 C.3     1  UNL1        0.1200
     13 C          64.5996   90.8095   14.2082 C.ar    1  UNL1        0.0221
     14 C          65.9474   91.3399   13.8180 C.ar    1  UNL1        0.0032
     15 C          66.6901   92.2558   14.7450 C.ar    1  UNL1        0.0207
     16 C          66.0850   92.6415   16.0623 C.ar    1  UNL1        0.0989
     17 N          64.7373   92.1111   16.4525 N.ar    1  UNL1       -0.2423
     18 C          63.9946   91.1951   15.5254 C.ar    1  UNL1        0.0989
     19 O          64.6576   87.8449   14.6639 O.3     1  UNL1       -0.4754
     20 C          63.7863   85.8126   16.0279 C.3     1  UNL1        0.0512
     21 C          64.6391   86.3681   14.9261 C.3     1  UNL1        0.2055
@<TRIPOS>BOND
     1    20    21    1
     2    21    19    1
     3    19     1    1
     4     1     2   ar
     5     2     3   ar
     6     3     4   ar
     7     4     5   ar
     8     5     6   ar
     9     6    13    1
    10    13    14   ar
    11    14    15   ar
    12    15    16   ar
    13    16    17   ar
    14    17    18   ar
    15     4     7    1
    16     7     8    1
    17     8     9    1
    18     9    10    2
    19     9    11   am
    20    11    12    1
    21     6     1   ar
    22    18    13   ar
    23    11     3    1
@<TRIPOS>MOLECULE
*****
 21 23 0 0 0
SMALL
GASTEIGER

@<TRIPOS>ATOM
      1 C          62.6027   86.9448   11.8267 C.ar    1  UNL1        0.1397
      2 C          62.0098   88.0738   11.0369 C.ar    1  UNL1        0.0515
      3 C          61.1705   87.7839    9.8280 C.ar    1  UNL1        0.0529
      4 C          60.9242   86.3649    9.4087 C.ar    1  UNL1       -0.0078
      5 C          61.5171   85.2359   10.1984 C.ar    1  UNL1        0.0000
      6 C          62.3564   85.5258   11.4074 C.ar    1  UNL1        0.0353
      7 C          60.0850   86.0750    8.1997 C.3     1  UNL1        0.0372
      8 C          59.4921   87.2040    7.4100 C.3     1  UNL1        0.0903
      9 C          59.7384   88.6230    7.8292 C.2     1  UNL1        0.2297
     10 O          59.1455   89.7521    7.0395 O.2     1  UNL1       -0.2745
     11 N          60.5776   88.9130    9.0382 N.am    1  UNL1       -0.2571
     12 C          60.8240   90.3319    9.4575 C.3     1  UNL1        0.1200
     13 C          62.9493   84.3967   12.1971 C.ar    1  UNL1        0.0221
     14 C          63.8632   83.4128   11.5288 C.ar    1  UNL1        0.0032
     15 C          64.4562   82.2837   12.3184 C.ar    1  UNL1        0.0207
     16 C          64.1351   82.1385   13.7765 C.ar    1  UNL1        0.0989
     17 N          63.2211   83.1223   14.4449 N.ar    1  UNL1       -0.2423
     18 C          62.6282   84.2515   13.6551 C.ar    1  UNL1        0.0989
     19 O          63.4419   87.2347   13.0356 O.3     1  UNL1       -0.4754
     20 C          64.2032   89.0190   14.7638 C.3     1  UNL1        0.0512
     21 C          63.8269   88.6477   13.3601 C.3     1  UNL1        0.2055
@<TRIPOS>BOND
     1    20    21    1
     2    21    19    1
     3    19     1    1
     4     1     2   ar
     5     2     3   ar
     6     3     4   ar
     7     4     5   ar
     8     5     6   ar
     9     6    13    1
    10    13    14   ar
    11    14    15   ar
    12    15    16   ar
    13    16    17   ar
    14    17    18   ar
    15     4     7    1
    16     7     8    1
    17     8     9    1
    18     9    10    2
    19     9    11   am
    20    11    12    1
    21     6     1   ar
    22    18    13   ar
    23    11     3    1
@<TRIPOS>MOLECULE
*****
 21 23 0 0 0
SMALL
GASTEIGER

@<TRIPOS>ATOM
      1 C          65.7219   92.4577   12.3908 C.ar    1  UNL1        0.1397
      2 C          65.0257   91.2089   12.8445 C.ar    1  UNL1        0.0515
      3 C          63.9958   90.5630   11.9659 C.ar    1  UNL1        0.0529
      4 C          63.6621   91.1658   10.6335 C.ar    1  UNL1       -0.0078
      5 C          64.3583   92.4145   10.1798 C.ar    1  UNL1        0.0000
      6 C          65.3882   93.0604   11.0585 C.ar    1  UNL1        0.0353
      7 C          62.6322   90.5198    9.7549 C.3     1  UNL1        0.0372
      8 C          61.9359   89.2711   10.2086 C.3     1  UNL1        0.0903
      9 C          62.2696   88.6683   11.5410 C.2     1  UNL1        0.2297
     10 O          61.5734   87.4195   11.9947 O.2     1  UNL1       -0.2745
     11 N          63.2995   89.3142   12.4197 N.am    1  UNL1       -0.2571
     12 C          63.6332   88.7114   13.7520 C.3     1  UNL1        0.1200
     13 C          66.0845   94.3092   10.6047 C.ar    1  UNL1        0.0221
     14 C          65.8498   95.6031   11.3263 C.ar    1  UNL1        0.0032
     15 C          66.5460   96.8519   10.8726 C.ar    1  UNL1        0.0207
     16 C          67.4769   96.8068    9.6972 C.ar    1  UNL1        0.0989
     17 N          67.7115   95.5129    8.9755 N.ar    1  UNL1       -0.2423
     18 C          67.0153   94.2641    9.4293 C.ar    1  UNL1        0.0989
     19 O          66.7518   93.1036   13.2695 O.3     1  UNL1       -0.4754
     20 C          67.6158   93.1617   15.7190 C.3     1  UNL1        0.0512
     21 C          66.4876   93.2709   14.7365 C.3     1  UNL1        0.2055
@<TRIPOS>BOND
     1    20    21    1
     2    21    19    1
     3    19     1    1
     4     1     2   ar
     5     2     3   ar
     6     3     4   ar
     7     4     5   ar
     8     5     6   ar
     9     6    13    1
    10    13    14   ar
    11    14    15   ar
    12    15    16   ar
    13    16    17   ar
    14    17    18   ar
    15     4     7    1
    16     7     8    1
    17     8     9    1
    18     9    10    2
    19     9    11   am
    20    11    12    1
    21     6     1   ar
    22    18    13   ar
    23    11     3    1
@<TRIPOS>MOLECULE
*****
 21 23 0 0 0
SMALL
GASTEIGER

@<TRIPOS>ATOM
      1 C          64.0477   91.0686   12.4021 C.ar    1  UNL1        0.1397
      2 C          63.1841   90.2690   11.4723 C.ar    1  UNL1        0.0515
      3 C          62.9470   88.8115   11.7359 C.ar    1  UNL1        0.0529
      4 C          63.5736   88.1536   12.9294 C.ar    1  UNL1       -0.0078
      5 C          64.4373   88.9533   13.8593 C.ar    1  UNL1        0.0000
      6 C          64.6743   90.4108   13.5956 C.ar    1  UNL1        0.0353
      7 C          63.3366   86.6961   13.1931 C.3     1  UNL1        0.0372
      8 C          62.4730   85.8965   12.2632 C.3     1  UNL1        0.0903
      9 C          61.8463   86.5544   11.0697 C.2     1  UNL1        0.2297
     10 O          60.9827   85.7548   10.1398 O.2     1  UNL1       -0.2745
     11 N          62.0833   88.0119   10.8060 N.am    1  UNL1       -0.2571
     12 C          61.4567   88.6697    9.6125 C.3     1  UNL1        0.1200
     13 C          65.5380   91.2104   14.5256 C.ar    1  UNL1        0.0221
     14 C          67.0016   91.3702   14.2386 C.ar    1  UNL1        0.0032
     15 C          67.8653   92.1698   15.1685 C.ar    1  UNL1        0.0207
     16 C          67.2653   92.8096   16.3854 C.ar    1  UNL1        0.0989
     17 N          65.8017   92.6498   16.6723 N.ar    1  UNL1       -0.2423
     18 C          64.9381   91.8502   15.7424 C.ar    1  UNL1        0.0989
     19 O          64.2847   92.5261   12.1385 O.3     1  UNL1       -0.4754
     20 C          66.5140   92.5403   10.8042 C.3     1  UNL1        0.0512
     21 C          65.0778   92.9520   10.9387 C.3     1  UNL1        0.2055
@<TRIPOS>BOND
     1    20    21    1
     2    21    19    1
     3    19     1    1
     4     1     2   ar
     5     2     3   ar
     6     3     4   ar
     7     4     5   ar
     8     5     6   ar
     9     6    13    1
    10    13    14   ar
    11    14    15   ar
    12    15    16   ar
    13    16    17   ar
    14    17    18   ar
    15     4     7    1
    16     7     8    1
    17     8     9    1
    18     9    10    2
    19     9    11   am
    20    11    12    1
    21     6     1   ar
    22    18    13   ar
    23    11     3    1
@<TRIPOS>MOLECULE
*****
 21 23 0 0 0
SMALL
GASTEIGER

@<TRIPOS>ATOM
      1 C          62.4720   85.4330   10.4591 C.ar    1  UNL1        0.1397
      2 C          62.6704   83.9886   10.8112 C.ar    1  UNL1        0.0515
      3 C          62.9983   83.5987   12.2220 C.ar    1  UNL1        0.0529
      4 C          63.1278   84.6533   13.2808 C.ar    1  UNL1       -0.0078
      5 C          62.9293   86.0978   12.9287 C.ar    1  UNL1        0.0000
      6 C          62.6014   86.4876   11.5179 C.ar    1  UNL1        0.0353
      7 C          63.4557   84.2634   14.6916 C.3     1  UNL1        0.0372
      8 C          63.6541   82.8189   15.0437 C.3     1  UNL1        0.0903
      9 C          63.5247   81.7642   13.9849 C.2     1  UNL1        0.2297
     10 O          63.7232   80.3197   14.3370 O.2     1  UNL1       -0.2745
     11 N          63.1968   82.1541   12.5741 N.am    1  UNL1       -0.2571
     12 C          63.0674   81.0995   11.5153 C.3     1  UNL1        0.1200
     13 C          62.4029   87.9322   11.1658 C.ar    1  UNL1        0.0221
     14 C          63.1214   88.9981   11.9389 C.ar    1  UNL1        0.0032
     15 C          62.9230   90.4426   11.5869 C.ar    1  UNL1        0.0207
     16 C          62.0060   90.8213   10.4618 C.ar    1  UNL1        0.0989
     17 N          61.2875   89.7554    9.6887 N.ar    1  UNL1       -0.2423
     18 C          61.4860   88.3109   10.0408 C.ar    1  UNL1        0.0989
     19 O          62.1441   85.8229    9.0483 O.3     1  UNL1       -0.4754
     20 C          62.0756   84.7442    6.6857 C.3     1  UNL1        0.0512
     21 C          62.8482   85.1573    7.9033 C.3     1  UNL1        0.2055
@<TRIPOS>BOND
     1    20    21    1
     2    21    19    1
     3    19     1    1
     4     1     2   ar
     5     2     3   ar
     6     3     4   ar
     7     4     5   ar
     8     5     6   ar
     9     6    13    1
    10    13    14   ar
    11    14    15   ar
    12    15    16   ar
    13    16    17   ar
    14    17    18   ar
    15     4     7    1
    16     7     8    1
    17     8     9    1
    18     9    10    2
    19     9    11   am
    20    11    12    1
    21     6     1   ar
    22    18    13   ar
    23    11     3    1
