@<TRIPOS>MOLECULE
*****
 27 31 0 0 0
SMALL
GASTEIGER

@<TRIPOS>ATOM
      1 O          63.5111   89.3005   12.7967 O.2     1  UNL1       -0.2638
      2 C          62.6923   88.6894   11.6984 C.2     1  UNL1        0.3160
      3 N          62.0692   89.5647   10.6516 N.am    1  UNL1       -0.1720
      4 C          61.2503   88.9536    9.5533 C.ar    1  UNL1        0.0775
      5 C          60.6273   89.8289    8.5066 C.ar    1  UNL1        0.0167
      6 C          59.8085   89.2179    7.4084 C.ar    1  UNL1        0.0013
      7 C          59.6127   87.7316    7.3569 C.ar    1  UNL1        0.0002
      8 C          60.2358   86.8563    8.4036 C.ar    1  UNL1        0.0051
      9 C          61.0546   87.4674    9.5018 C.ar    1  UNL1        0.0623
     10 C          61.6777   86.5921   10.5486 C.2     1  UNL1        0.2419
     11 N          61.6593   85.1066   10.7557 N.2     1  UNL1       -0.0302
     12 C          62.4668   84.7995   11.9820 C.2     1  UNL1        0.3765
     13 N          62.9842   86.0953   12.5327 N.2     1  UNL1       -0.0256
     14 C          62.4965   87.2031   11.6469 C.2     1  UNL1        0.2907
     15 C          62.7135   83.4360   12.5566 C.ar    1  UNL1        0.0989
     16 C          62.0507   83.0319   13.8400 C.ar    1  UNL1        0.0085
     17 C          62.2974   81.6685   14.4146 C.ar    1  UNL1        0.0003
     18 C          63.2070   80.7092   13.7057 C.ar    1  UNL1        0.0009
     19 C          63.8698   81.1134   12.4222 C.ar    1  UNL1        0.0116
     20 C          63.6231   82.4768   11.8477 C.ar    1  UNL1        0.0651
     21 CL         64.2859   82.8810   10.5642 Cl      1  UNL1       -0.0820
     22 C          59.1854   90.0931    6.3616 C.ar    1  UNL1        0.0000
     23 C          57.6951   90.1154    6.1926 C.ar    1  UNL1        0.0000
     24 C          57.0719   90.9906    5.1459 C.ar    1  UNL1        0.0000
     25 C          57.9391   91.8436    4.2680 C.ar    1  UNL1        0.0000
     26 C          59.4294   91.8213    4.4370 C.ar    1  UNL1        0.0000
     27 C          60.0525   90.9460    5.4838 C.ar    1  UNL1        0.0000
@<TRIPOS>BOND
     1     1     2    2
     2     2     3    1
     3     3     4    2
     4     4     5   ar
     5     5     6   ar
     6     6    22    1
     7    22    23   ar
     8    23    24   ar
     9    24    25   ar
    10    25    26   ar
    11    26    27   ar
    12     6     7   ar
    13     7     8   ar
    14     8     9   ar
    15     9    10    2
    16    10    11    1
    17    11    12    2
    18    12    15    1
    19    15    16   ar
    20    16    17   ar
    21    17    18   ar
    22    18    19   ar
    23    19    20   ar
    24    20    21    1
    25    12    13    1
    26    13    14    2
    27    14     2    1
    28     9     4   ar
    29    14    10    1
    30    27    22   ar
    31    20    15   ar
@<TRIPOS>MOLECULE
*****
 27 31 0 0 0
SMALL
GASTEIGER

@<TRIPOS>ATOM
      1 O          61.3024   88.9652    9.9410 O.2     1  UNL1       -0.2638
      2 C          61.9842   87.9463   10.8055 C.2     1  UNL1        0.3160
      3 N          61.8396   86.4852   10.4989 N.am    1  UNL1       -0.1720
      4 C          62.5215   85.4664   11.3633 C.ar    1  UNL1        0.0775
      5 C          62.3768   84.0052   11.0568 C.ar    1  UNL1        0.0167
      6 C          63.0586   82.9865   11.9212 C.ar    1  UNL1        0.0013
      7 C          63.8851   83.4289   13.0922 C.ar    1  UNL1        0.0002
      8 C          64.0297   84.8901   13.3988 C.ar    1  UNL1        0.0051
      9 C          63.3479   85.9088   12.5343 C.ar    1  UNL1        0.0623
     10 C          63.4925   87.3701   12.8409 C.2     1  UNL1        0.2419
     11 N          64.2364   88.1005   13.9193 N.2     1  UNL1       -0.0302
     12 C          64.0143   89.5707   13.7214 C.2     1  UNL1        0.3765
     13 N          63.1332   89.7489   12.5206 N.2     1  UNL1       -0.0256
     14 C          62.8107   88.3888   11.9764 C.2     1  UNL1        0.2907
     15 C          64.5750   90.6698   14.5745 C.ar    1  UNL1        0.0989
     16 C          65.6433   91.5710   14.0301 C.ar    1  UNL1        0.0085
     17 C          66.2039   92.6700   14.8832 C.ar    1  UNL1        0.0003
     18 C          65.6962   92.8678   16.2807 C.ar    1  UNL1        0.0009
     19 C          64.6279   91.9666   16.8252 C.ar    1  UNL1        0.0116
     20 C          64.0673   90.8676   15.9721 C.ar    1  UNL1        0.0651
     21 CL         62.9989   89.9663   16.5165 Cl      1  UNL1       -0.0820
     22 C          62.9140   81.5252   11.6146 C.ar    1  UNL1        0.0000
     23 C          63.0640   81.0363   10.2045 C.ar    1  UNL1        0.0000
     24 C          62.9194   79.5752    9.8979 C.ar    1  UNL1        0.0000
     25 C          62.6248   78.6028   11.0015 C.ar    1  UNL1        0.0000
     26 C          62.4749   79.0917   12.4116 C.ar    1  UNL1        0.0000
     27 C          62.6195   80.5530   12.7182 C.ar    1  UNL1        0.0000
@<TRIPOS>BOND
     1     1     2    2
     2     2     3    1
     3     3     4    2
     4     4     5   ar
     5     5     6   ar
     6     6    22    1
     7    22    23   ar
     8    23    24   ar
     9    24    25   ar
    10    25    26   ar
    11    26    27   ar
    12     6     7   ar
    13     7     8   ar
    14     8     9   ar
    15     9    10    2
    16    10    11    1
    17    11    12    2
    18    12    15    1
    19    15    16   ar
    20    16    17   ar
    21    17    18   ar
    22    18    19   ar
    23    19    20   ar
    24    20    21    1
    25    12    13    1
    26    13    14    2
    27    14     2    1
    28     9     4   ar
    29    14    10    1
    30    27    22   ar
    31    20    15   ar
@<TRIPOS>MOLECULE
*****
 27 31 0 0 0
SMALL
GASTEIGER

@<TRIPOS>ATOM
      1 O          61.2031   89.5224   10.2328 O.2     1  UNL1       -0.2638
      2 C          61.9458   88.6162   11.1695 C.2     1  UNL1        0.3160
      3 N          61.6374   87.1485   11.1951 N.am    1  UNL1       -0.1720
      4 C          62.3801   86.2423   12.1318 C.ar    1  UNL1        0.0775
      5 C          62.0717   84.7746   12.1575 C.ar    1  UNL1        0.0167
      6 C          62.8143   83.8685   13.0941 C.ar    1  UNL1        0.0013
      7 C          63.8654   84.4301   14.0051 C.ar    1  UNL1        0.0002
      8 C          64.1738   85.8978   13.9795 C.ar    1  UNL1        0.0051
      9 C          63.4311   86.8039   13.0428 C.ar    1  UNL1        0.0623
     10 C          63.7395   88.2717   13.0171 C.2     1  UNL1        0.2419
     11 N          64.7154   89.1059   13.7927 N.2     1  UNL1       -0.0302
     12 C          64.5760   90.5276   13.3354 C.2     1  UNL1        0.3765
     13 N          63.5138   90.5721   12.2772 N.2     1  UNL1       -0.0256
     14 C          62.9968   89.1778   12.0805 C.2     1  UNL1        0.2907
     15 C          65.3609   91.6993   13.8466 C.ar    1  UNL1        0.0989
     16 C          65.7378   91.7744   15.2964 C.ar    1  UNL1        0.0085
     17 C          66.5227   92.9460   15.8075 C.ar    1  UNL1        0.0003
     18 C          66.9306   94.0425   14.8688 C.ar    1  UNL1        0.0009
     19 C          66.5537   93.9674   13.4189 C.ar    1  UNL1        0.0116
     20 C          65.7688   92.7958   12.9078 C.ar    1  UNL1        0.0651
     21 CL         65.3918   92.7206   11.4578 Cl      1  UNL1       -0.0820
     22 C          62.5059   82.4007   13.1198 C.ar    1  UNL1        0.0000
     23 C          63.0662   81.4980   12.0610 C.ar    1  UNL1        0.0000
     24 C          62.7579   80.0303   12.0866 C.ar    1  UNL1        0.0000
     25 C          61.8892   79.4652   13.1712 C.ar    1  UNL1        0.0000
     26 C          61.3289   80.3679   14.2300 C.ar    1  UNL1        0.0000
     27 C          61.6373   81.8357   14.2043 C.ar    1  UNL1        0.0000
@<TRIPOS>BOND
     1     1     2    2
     2     2     3    1
     3     3     4    2
     4     4     5   ar
     5     5     6   ar
     6     6    22    1
     7    22    23   ar
     8    23    24   ar
     9    24    25   ar
    10    25    26   ar
    11    26    27   ar
    12     6     7   ar
    13     7     8   ar
    14     8     9   ar
    15     9    10    2
    16    10    11    1
    17    11    12    2
    18    12    15    1
    19    15    16   ar
    20    16    17   ar
    21    17    18   ar
    22    18    19   ar
    23    19    20   ar
    24    20    21    1
    25    12    13    1
    26    13    14    2
    27    14     2    1
    28     9     4   ar
    29    14    10    1
    30    27    22   ar
    31    20    15   ar
@<TRIPOS>MOLECULE
*****
 27 31 0 0 0
SMALL
GASTEIGER

@<TRIPOS>ATOM
      1 O          61.2731   86.7685    9.1025 O.2     1  UNL1       -0.2638
      2 C          62.0312   86.7227   10.3961 C.2     1  UNL1        0.3160
      3 N          62.4323   87.9982   11.0759 N.am    1  UNL1       -0.1720
      4 C          63.1904   87.9524   12.3695 C.ar    1  UNL1        0.0775
      5 C          63.5915   89.2279   13.0493 C.ar    1  UNL1        0.0167
      6 C          64.3495   89.1820   14.3428 C.ar    1  UNL1        0.0013
      7 C          64.7064   87.8607   14.9565 C.ar    1  UNL1        0.0002
      8 C          64.3053   86.5852   14.2767 C.ar    1  UNL1        0.0051
      9 C          63.5473   86.6310   12.9832 C.ar    1  UNL1        0.0623
     10 C          63.1461   85.3555   12.3033 C.2     1  UNL1        0.2419
     11 N          63.3561   83.9155   12.6668 N.2     1  UNL1       -0.0302
     12 C          62.7278   83.0713   11.5979 C.2     1  UNL1        0.3765
     13 N          62.1296   83.9896   10.5738 N.2     1  UNL1       -0.0256
     14 C          62.3881   85.4013   11.0098 C.2     1  UNL1        0.2907
     15 C          62.7023   81.5719   11.5597 C.ar    1  UNL1        0.0989
     16 C          62.9732   80.8497   10.2733 C.ar    1  UNL1        0.0085
     17 C          62.9477   79.3504   10.2353 C.ar    1  UNL1        0.0003
     18 C          62.6512   78.5734   11.4836 C.ar    1  UNL1        0.0009
     19 C          62.3803   79.2956   12.7700 C.ar    1  UNL1        0.0116
     20 C          62.4058   80.7949   12.8081 C.ar    1  UNL1        0.0651
     21 CL         62.1348   81.5172   14.0945 Cl      1  UNL1       -0.0820
     22 C          64.7507   90.4576   15.0226 C.ar    1  UNL1        0.0000
     23 C          63.9641   90.9613   16.1963 C.ar    1  UNL1        0.0000
     24 C          64.3652   92.2368   16.8762 C.ar    1  UNL1        0.0000
     25 C          65.5530   93.0086   16.3824 C.ar    1  UNL1        0.0000
     26 C          66.3395   92.5048   15.2087 C.ar    1  UNL1        0.0000
     27 C          65.9383   91.2293   14.5288 C.ar    1  UNL1        0.0000
@<TRIPOS>BOND
     1     1     2    2
     2     2     3    1
     3     3     4    2
     4     4     5   ar
     5     5     6   ar
     6     6    22    1
     7    22    23   ar
     8    23    24   ar
     9    24    25   ar
    10    25    26   ar
    11    26    27   ar
    12     6     7   ar
    13     7     8   ar
    14     8     9   ar
    15     9    10    2
    16    10    11    1
    17    11    12    2
    18    12    15    1
    19    15    16   ar
    20    16    17   ar
    21    17    18   ar
    22    18    19   ar
    23    19    20   ar
    24    20    21    1
    25    12    13    1
    26    13    14    2
    27    14     2    1
    28     9     4   ar
    29    14    10    1
    30    27    22   ar
    31    20    15   ar
@<TRIPOS>MOLECULE
*****
 27 31 0 0 0
SMALL
GASTEIGER

@<TRIPOS>ATOM
      1 O          63.1714   88.6301   18.0257 O.2     1  UNL1       -0.2638
      2 C          63.3124   87.9674   16.6873 C.2     1  UNL1        0.3160
      3 N          62.9439   86.5227   16.5233 N.am    1  UNL1       -0.1720
      4 C          63.0849   85.8600   15.1850 C.ar    1  UNL1        0.0775
      5 C          62.7164   84.4152   15.0209 C.ar    1  UNL1        0.0167
      6 C          62.8574   83.7526   13.6827 C.ar    1  UNL1        0.0013
      7 C          63.3668   84.5347   12.5085 C.ar    1  UNL1        0.0002
      8 C          63.7353   85.9794   12.6725 C.ar    1  UNL1        0.0051
      9 C          63.5943   86.6421   14.0108 C.ar    1  UNL1        0.0623
     10 C          63.9628   88.0869   14.1749 C.2     1  UNL1        0.2419
     11 N          64.4884   89.1048   13.2066 N.2     1  UNL1       -0.0302
     12 C          64.6723   90.3966   13.9465 C.2     1  UNL1        0.3765
     13 N          64.2603   90.1770   15.3720 N.2     1  UNL1       -0.0256
     14 C          63.8218   88.7495   15.5131 C.2     1  UNL1        0.2907
     15 C          65.1792   91.6823   13.3632 C.ar    1  UNL1        0.0989
     16 C          64.8653   92.0352   11.9396 C.ar    1  UNL1        0.0085
     17 C          65.3722   93.3208   11.3564 C.ar    1  UNL1        0.0003
     18 C          66.1929   94.2536   12.1969 C.ar    1  UNL1        0.0009
     19 C          66.5068   93.9006   13.6205 C.ar    1  UNL1        0.0116
     20 C          65.9999   92.6150   14.2037 C.ar    1  UNL1        0.0651
     21 CL         66.3138   92.2620   15.6275 Cl      1  UNL1       -0.0820
     22 C          62.4889   82.3078   13.5186 C.ar    1  UNL1        0.0000
     23 C          63.1983   81.4637   12.5016 C.ar    1  UNL1        0.0000
     24 C          62.8299   80.0190   12.3375 C.ar    1  UNL1        0.0000
     25 C          61.7520   79.4183   13.1904 C.ar    1  UNL1        0.0000
     26 C          61.0426   80.2623   14.2074 C.ar    1  UNL1        0.0000
     27 C          61.4111   81.7071   14.3715 C.ar    1  UNL1        0.0000
@<TRIPOS>BOND
     1     1     2    2
     2     2     3    1
     3     3     4    2
     4     4     5   ar
     5     5     6   ar
     6     6    22    1
     7    22    23   ar
     8    23    24   ar
     9    24    25   ar
    10    25    26   ar
    11    26    27   ar
    12     6     7   ar
    13     7     8   ar
    14     8     9   ar
    15     9    10    2
    16    10    11    1
    17    11    12    2
    18    12    15    1
    19    15    16   ar
    20    16    17   ar
    21    17    18   ar
    22    18    19   ar
    23    19    20   ar
    24    20    21    1
    25    12    13    1
    26    13    14    2
    27    14     2    1
    28     9     4   ar
    29    14    10    1
    30    27    22   ar
    31    20    15   ar
@<TRIPOS>MOLECULE
*****
 27 31 0 0 0
SMALL
GASTEIGER

@<TRIPOS>ATOM
      1 O          63.1726   88.6169   18.0000 O.2     1  UNL1       -0.2638
      2 C          63.3086   87.9513   16.6626 C.2     1  UNL1        0.3160
      3 N          62.9404   86.5060   16.5032 N.am    1  UNL1       -0.1720
      4 C          63.0764   85.8404   15.1658 C.ar    1  UNL1        0.0775
      5 C          62.7082   84.3951   15.0064 C.ar    1  UNL1        0.0167
      6 C          62.8442   83.7296   13.6691 C.ar    1  UNL1        0.0013
      7 C          63.3484   84.5094   12.4911 C.ar    1  UNL1        0.0002
      8 C          63.7165   85.9547   12.6505 C.ar    1  UNL1        0.0051
      9 C          63.5806   86.6202   13.9878 C.ar    1  UNL1        0.0623
     10 C          63.9488   88.0656   14.1472 C.2     1  UNL1        0.2419
     11 N          64.4698   89.0817   13.1746 N.2     1  UNL1       -0.0302
     12 C          64.6558   90.3753   13.9109 C.2     1  UNL1        0.3765
     13 N          64.2498   90.1586   15.3385 N.2     1  UNL1       -0.0256
     14 C          63.8128   88.7311   15.4846 C.2     1  UNL1        0.2907
     15 C          65.1595   91.6600   13.3227 C.ar    1  UNL1        0.0989
     16 C          66.0761   92.5408   14.1189 C.ar    1  UNL1        0.0085
     17 C          66.5797   93.8255   13.5308 C.ar    1  UNL1        0.0003
     18 C          66.1668   94.2293   12.1464 C.ar    1  UNL1        0.0009
     19 C          65.2502   93.3484   11.3502 C.ar    1  UNL1        0.0116
     20 C          64.7466   92.0638   11.9384 C.ar    1  UNL1        0.0651
     21 CL         63.8300   91.1829   11.1422 Cl      1  UNL1       -0.0820
     22 C          62.4760   82.2842   13.5097 C.ar    1  UNL1        0.0000
     23 C          63.1939   81.4339   12.5039 C.ar    1  UNL1        0.0000
     24 C          62.8257   79.9886   12.3444 C.ar    1  UNL1        0.0000
     25 C          61.7396   79.3934   13.1908 C.ar    1  UNL1        0.0000
     26 C          61.0217   80.2437   14.1966 C.ar    1  UNL1        0.0000
     27 C          61.3899   81.6891   14.3561 C.ar    1  UNL1        0.0000
@<TRIPOS>BOND
     1     1     2    2
     2     2     3    1
     3     3     4    2
     4     4     5   ar
     5     5     6   ar
     6     6    22    1
     7    22    23   ar
     8    23    24   ar
     9    24    25   ar
    10    25    26   ar
    11    26    27   ar
    12     6     7   ar
    13     7     8   ar
    14     8     9   ar
    15     9    10    2
    16    10    11    1
    17    11    12    2
    18    12    15    1
    19    15    16   ar
    20    16    17   ar
    21    17    18   ar
    22    18    19   ar
    23    19    20   ar
    24    20    21    1
    25    12    13    1
    26    13    14    2
    27    14     2    1
    28     9     4   ar
    29    14    10    1
    30    27    22   ar
    31    20    15   ar
@<TRIPOS>MOLECULE
*****
 27 31 0 0 0
SMALL
GASTEIGER

@<TRIPOS>ATOM
      1 O          60.8988   87.2022    9.6302 O.2     1  UNL1       -0.2638
      2 C          61.8391   87.3149   10.7935 C.2     1  UNL1        0.3160
      3 N          62.4322   88.6451   11.1522 N.am    1  UNL1       -0.1720
      4 C          63.3725   88.7579   12.3155 C.ar    1  UNL1        0.0775
      5 C          63.9657   90.0881   12.6743 C.ar    1  UNL1        0.0167
      6 C          64.9059   90.2007   13.8375 C.ar    1  UNL1        0.0013
      7 C          65.2530   88.9833   14.6421 C.ar    1  UNL1        0.0002
      8 C          64.6598   87.6531   14.2833 C.ar    1  UNL1        0.0051
      9 C          63.7196   87.5404   13.1201 C.ar    1  UNL1        0.0623
     10 C          63.1264   86.2101   12.7613 C.2     1  UNL1        0.2419
     11 N          63.2819   84.8461   13.3656 N.2     1  UNL1       -0.0302
     12 C          62.4376   83.8903   12.5757 C.2     1  UNL1        0.3765
     13 N          61.7605   84.6637   11.4834 N.2     1  UNL1       -0.0256
     14 C          62.1862   86.0975   11.5980 C.2     1  UNL1        0.2907
     15 C          62.2956   82.4194   12.8331 C.ar    1  UNL1        0.0989
     16 C          61.5662   81.9383   14.0524 C.ar    1  UNL1        0.0085
     17 C          61.4242   80.4675   14.3097 C.ar    1  UNL1        0.0003
     18 C          62.0115   79.4776   13.3478 C.ar    1  UNL1        0.0009
     19 C          62.7408   79.9586   12.1286 C.ar    1  UNL1        0.0116
     20 C          62.8829   81.4295   11.8712 C.ar    1  UNL1        0.0651
     21 CL         63.6122   81.9106   10.6519 Cl      1  UNL1       -0.0820
     22 C          65.4991   91.5310   14.1963 C.ar    1  UNL1        0.0000
     23 C          65.8196   91.8479   15.6270 C.ar    1  UNL1        0.0000
     24 C          66.4128   93.1781   15.9858 C.ar    1  UNL1        0.0000
     25 C          66.6855   94.1914   14.9139 C.ar    1  UNL1        0.0000
     26 C          66.3650   93.8745   13.4832 C.ar    1  UNL1        0.0000
     27 C          65.7718   92.5442   13.1244 C.ar    1  UNL1        0.0000
@<TRIPOS>BOND
     1     1     2    2
     2     2     3    1
     3     3     4    2
     4     4     5   ar
     5     5     6   ar
     6     6    22    1
     7    22    23   ar
     8    23    24   ar
     9    24    25   ar
    10    25    26   ar
    11    26    27   ar
    12     6     7   ar
    13     7     8   ar
    14     8     9   ar
    15     9    10    2
    16    10    11    1
    17    11    12    2
    18    12    15    1
    19    15    16   ar
    20    16    17   ar
    21    17    18   ar
    22    18    19   ar
    23    19    20   ar
    24    20    21    1
    25    12    13    1
    26    13    14    2
    27    14     2    1
    28     9     4   ar
    29    14    10    1
    30    27    22   ar
    31    20    15   ar
@<TRIPOS>MOLECULE
*****
 27 31 0 0 0
SMALL
GASTEIGER

@<TRIPOS>ATOM
      1 O          62.4458   85.9460   17.7471 O.2     1  UNL1       -0.2638
      2 C          62.8132   85.6511   16.3230 C.2     1  UNL1        0.3160
      3 N          62.6014   84.2757   15.7632 N.am    1  UNL1       -0.1720
      4 C          62.9688   83.9807   14.3391 C.ar    1  UNL1        0.0775
      5 C          62.7569   82.6053   13.7793 C.ar    1  UNL1        0.0167
      6 C          63.1243   82.3104   12.3553 C.ar    1  UNL1        0.0013
      7 C          63.7036   83.3909   11.4910 C.ar    1  UNL1        0.0002
      8 C          63.9154   84.7663   12.0507 C.ar    1  UNL1        0.0051
      9 C          63.5480   85.0612   13.4748 C.ar    1  UNL1        0.0623
     10 C          63.7599   86.4367   14.0346 C.2     1  UNL1        0.2419
     11 N          64.3078   87.6940   13.4273 N.2     1  UNL1       -0.0302
     12 C          64.2791   88.7660   14.4761 C.2     1  UNL1        0.3765
     13 N          63.7134   88.1712   15.7315 N.2     1  UNL1       -0.0256
     14 C          63.3925   86.7316   15.4587 C.2     1  UNL1        0.2907
     15 C          64.7358   90.1840   14.3003 C.ar    1  UNL1        0.0989
     16 C          65.5498   90.8480   15.3710 C.ar    1  UNL1        0.0085
     17 C          66.0065   92.2658   15.1951 C.ar    1  UNL1        0.0003
     18 C          65.6493   93.0197   13.9485 C.ar    1  UNL1        0.0009
     19 C          64.8354   92.3557   12.8778 C.ar    1  UNL1        0.0116
     20 C          64.3786   90.9378   13.0536 C.ar    1  UNL1        0.0651
     21 CL         63.5646   90.2738   11.9829 Cl      1  UNL1       -0.0820
     22 C          62.9124   80.9350   11.7954 C.ar    1  UNL1        0.0000
     23 C          62.5714   79.7969   12.7111 C.ar    1  UNL1        0.0000
     24 C          62.3596   78.4215   12.1513 C.ar    1  UNL1        0.0000
     25 C          62.4887   78.1842   10.6758 C.ar    1  UNL1        0.0000
     26 C          62.8297   79.3222    9.7602 C.ar    1  UNL1        0.0000
     27 C          63.0416   80.6977   10.3200 C.ar    1  UNL1        0.0000
@<TRIPOS>BOND
     1     1     2    2
     2     2     3    1
     3     3     4    2
     4     4     5   ar
     5     5     6   ar
     6     6    22    1
     7    22    23   ar
     8    23    24   ar
     9    24    25   ar
    10    25    26   ar
    11    26    27   ar
    12     6     7   ar
    13     7     8   ar
    14     8     9   ar
    15     9    10    2
    16    10    11    1
    17    11    12    2
    18    12    15    1
    19    15    16   ar
    20    16    17   ar
    21    17    18   ar
    22    18    19   ar
    23    19    20   ar
    24    20    21    1
    25    12    13    1
    26    13    14    2
    27    14     2    1
    28     9     4   ar
    29    14    10    1
    30    27    22   ar
    31    20    15   ar
