@<TRIPOS>MOLECULE
*****
 43 46 0 0 0
SMALL
GASTEIGER

@<TRIPOS>ATOM
      1 C          63.5796   89.7690   12.7307 C.3     1  UNL1        0.1086
      2 O          63.4493   89.2423   11.3323 O.3     1  UNL1       -0.3826
      3 H          63.2894   89.9797   10.7226 H       1  UNL1        0.2107
      4 C          63.7959   88.3735   13.2362 C.3     1  UNL1        0.0485
      5 C          64.5967   88.1432   14.4834 C.3     1  UNL1        0.0061
      6 C          64.8129   86.7475   14.9889 C.3     1  UNL1        0.0217
      7 C          64.2284   85.5822   14.2472 C.3     1  UNL1        0.0934
      8 N          63.4275   85.8125   12.9999 N.am    1  UNL1       -0.2795
      9 C          62.8430   84.6471   12.2581 C.2     1  UNL1        0.2252
     10 O          62.0422   84.8773   11.0108 O.2     1  UNL1       -0.2749
     11 C          63.2113   87.2080   12.4944 C.3     1  UNL1        0.0960
     12 C          63.0592   83.2515   12.7636 C.3     1  UNL1        0.0781
     13 C          64.2829   82.4129   12.5411 C.3     1  UNL1        0.0105
     14 C          64.0697   81.0926   13.2204 C.3     1  UNL1        0.0160
     15 C          62.7143   81.1152   13.8626 C.3     1  UNL1        0.0513
     16 N          62.0926   79.9994   14.6490 N.3     1  UNL1       -0.3222
     17 C          62.0898   82.4494   13.5803 C.3     1  UNL1        0.0245
     18 H          62.7362   79.2089   14.6847 H       1  UNL1        0.1188
     19 H          61.2235   79.7103   14.2003 H       1  UNL1        0.1188
     20 C          64.8176   91.2474   14.4720 C.ar    1  UNL1        0.0257
     21 C          64.9479   91.7741   15.8704 C.ar    1  UNL1        0.1398
     22 F          66.0555   92.7257   16.2132 F       1  UNL1       -0.2042
     23 C          63.9706   91.3491   16.9260 C.ar    1  UNL1        0.0296
     24 C          62.8630   90.3975   16.5832 C.ar    1  UNL1        0.0021
     25 C          62.7326   89.8708   15.1847 C.ar    1  UNL1       -0.0019
     26 C          63.7099   90.2957   14.1292 C.ar    1  UNL1        0.0039
     27 C          66.3360   93.0230   11.2639 C.ar    1  UNL1       -0.0222
     28 C          67.7493   92.5223   11.3050 C.ar    1  UNL1       -0.0043
     29 C          68.1854   91.5965   12.4018 C.ar    1  UNL1       -0.0003
     30 C          67.2082   91.1716   13.4574 C.ar    1  UNL1        0.0000
     31 C          65.7949   91.6723   13.4163 C.ar    1  UNL1        0.0016
     32 C          65.3588   92.5981   12.3196 C.ar    1  UNL1       -0.0042
     33 C          66.9177   94.5486    9.2430 C.3     1  UNL1        0.0050
     34 C          65.8999   93.9487   10.1672 C.3     1  UNL1        0.0264
     35 C          63.3634   91.1646   12.2252 C.3     1  UNL1        0.0330
     36 C          62.5828   91.3932   10.9648 C.3     1  UNL1        0.0241
     37 C          61.1745   90.8894   10.8530 C.3     1  UNL1        0.0928
     38 N          60.8192   89.8837    9.7983 N.am    1  UNL1       -0.2707
     39 C          60.2303   88.5612   10.1911 C.2     1  UNL1        0.4017
     40 O          59.9967   88.2444   11.6386 O.2     1  UNL1       -0.2264
     41 H          60.9725   90.0916    8.8483 H       1  UNL1        0.1527
     42 O          59.8751   87.5555    9.1365 O.3     1  UNL1       -0.4306
     43 C          59.4018   88.0163    7.7897 C.3     1  UNL1        0.2573
@<TRIPOS>BOND
     1    33    34    1
     2    34    27    1
     3    27    28   ar
     4    28    29   ar
     5    29    30   ar
     6    30    31   ar
     7    31    20    1
     8    20    21   ar
     9    21    22    1
    10    21    23   ar
    11    23    24   ar
    12    24    25   ar
    13    25    26   ar
    14    26     1    1
    15     1     2    1
    16     1    35    1
    17    35    36    1
    18    36    37    1
    19    37    38    1
    20    38    39   am
    21    39    40    2
    22    39    42    1
    23    42    43    1
    24     4     1    1
    25     4     5    1
    26     5     6    1
    27     6     7    1
    28     7     8    1
    29     8     9   am
    30     9    10    2
    31    12     9    1
    32    12    13    1
    33    13    14    1
    34    14    15    1
    35    15    16    1
    36    15    17    1
    37     8    11    1
    38    31    32   ar
    39    32    27   ar
    40    26    20   ar
    41    11     4    1
    42    17    12    1
    43     2     3    1
    44    38    41    1
    45    16    18    1
    46    16    19    1
@<TRIPOS>MOLECULE
*****
 43 46 0 0 0
SMALL
GASTEIGER

@<TRIPOS>ATOM
      1 C          63.0792   88.5746   12.4900 C.3     1  UNL1        0.1086
      2 O          64.5030   88.4089   12.9320 O.3     1  UNL1       -0.3826
      3 H          64.5816   87.6100   13.4765 H       1  UNL1        0.2107
      4 C          63.4537   89.8263   11.7532 C.3     1  UNL1        0.0485
      5 C          62.7799   90.1630   10.4560 C.3     1  UNL1        0.0061
      6 C          63.1544   91.4148    9.7192 C.3     1  UNL1        0.0217
      7 C          64.2026   92.3298   10.2796 C.3     1  UNL1        0.0934
      8 N          64.8763   91.9931   11.5768 N.am    1  UNL1       -0.2795
      9 C          65.9245   92.9082   12.1371 C.2     1  UNL1        0.2252
     10 O          66.5982   92.5715   13.4343 O.2     1  UNL1       -0.2749
     11 C          64.5019   90.7414   12.3136 C.3     1  UNL1        0.0960
     12 C          66.2989   94.1599   11.4003 C.3     1  UNL1        0.0781
     13 C          66.0534   95.5643   11.8665 C.3     1  UNL1        0.0105
     14 C          66.5874   96.4994   10.8222 C.3     1  UNL1        0.0160
     15 C          67.1630   95.6729    9.7107 C.3     1  UNL1        0.0513
     16 N          67.8042   96.1998    8.4612 N.3     1  UNL1       -0.3222
     17 C          66.9847   94.2271   10.0679 C.3     1  UNL1        0.0245
     18 H          67.7921   97.2197    8.4769 H       1  UNL1        0.1188
     19 H          67.2878   95.8662    7.6473 H       1  UNL1        0.1188
     20 C          61.0722   87.8047   11.0307 C.ar    1  UNL1        0.0257
     21 C          59.6485   87.9704   10.5886 C.ar    1  UNL1        0.1398
     22 F          59.0652   87.0349    9.5715 F       1  UNL1       -0.2042
     23 C          58.8079   89.0717   11.1637 C.ar    1  UNL1        0.0296
     24 C          59.3911   90.0073   12.1808 C.ar    1  UNL1        0.0021
     25 C          60.8149   89.8416   12.6229 C.ar    1  UNL1       -0.0019
     26 C          61.6554   88.7403   12.0479 C.ar    1  UNL1        0.0039
     27 C          62.9509   84.3297   10.6501 C.ar    1  UNL1       -0.0222
     28 C          63.5939   84.5009    9.3057 C.ar    1  UNL1       -0.0043
     29 C          63.3963   85.7733    8.5364 C.ar    1  UNL1       -0.0003
     30 C          62.5557   86.8746    9.1114 C.ar    1  UNL1        0.0000
     31 C          61.9128   86.7034   10.4557 C.ar    1  UNL1        0.0016
     32 C          62.1104   85.4310   11.2251 C.ar    1  UNL1       -0.0042
     33 C          64.5348   82.5786   11.7339 C.3     1  UNL1        0.0050
     34 C          63.1485   83.0573   11.4194 C.3     1  UNL1        0.0264
     35 C          62.7048   87.3228   13.2268 C.3     1  UNL1        0.0330
     36 C          63.7593   86.5263   13.9364 C.3     1  UNL1        0.0241
     37 C          63.3670   85.5315   14.9882 C.3     1  UNL1        0.0928
     38 N          62.3005   84.5168   14.7002 N.am    1  UNL1       -0.2707
     39 C          62.5974   83.0540   14.8484 C.2     1  UNL1        0.4017
     40 O          63.9609   82.6058   15.2846 O.2     1  UNL1       -0.2264
     41 H          61.4056   84.8109   14.4139 H       1  UNL1        0.1527
     42 O          61.5309   82.0392   14.5604 O.3     1  UNL1       -0.4306
     43 C          61.8896   80.7409   13.9002 C.3     1  UNL1        0.2573
@<TRIPOS>BOND
     1    33    34    1
     2    34    27    1
     3    27    28   ar
     4    28    29   ar
     5    29    30   ar
     6    30    31   ar
     7    31    20    1
     8    20    21   ar
     9    21    22    1
    10    21    23   ar
    11    23    24   ar
    12    24    25   ar
    13    25    26   ar
    14    26     1    1
    15     1     2    1
    16     1    35    1
    17    35    36    1
    18    36    37    1
    19    37    38    1
    20    38    39   am
    21    39    40    2
    22    39    42    1
    23    42    43    1
    24     4     1    1
    25     4     5    1
    26     5     6    1
    27     6     7    1
    28     7     8    1
    29     8     9   am
    30     9    10    2
    31    12     9    1
    32    12    13    1
    33    13    14    1
    34    14    15    1
    35    15    16    1
    36    15    17    1
    37     8    11    1
    38    31    32   ar
    39    32    27   ar
    40    26    20   ar
    41    11     4    1
    42    17    12    1
    43     2     3    1
    44    38    41    1
    45    16    18    1
    46    16    19    1
@<TRIPOS>MOLECULE
*****
 43 46 0 0 0
SMALL
GASTEIGER

@<TRIPOS>ATOM
      1 C          63.1162   88.6831   12.4267 C.3     1  UNL1        0.1086
      2 O          64.5399   88.5212   12.8702 O.3     1  UNL1       -0.3826
      3 H          64.6199   87.7230   13.4155 H       1  UNL1        0.2107
      4 C          63.4884   89.9352   11.6892 C.3     1  UNL1        0.0485
      5 C          62.8207   90.2652   10.3872 C.3     1  UNL1        0.0061
      6 C          63.1929   91.5173    9.6497 C.3     1  UNL1        0.0217
      7 C          64.2327   92.4393   10.2143 C.3     1  UNL1        0.0934
      8 N          64.9004   92.1092   11.5163 N.am    1  UNL1       -0.2795
      9 C          65.9403   93.0312   12.0809 C.2     1  UNL1        0.2252
     10 O          66.6079   92.7011   13.3829 O.2     1  UNL1       -0.2749
     11 C          64.5282   90.8572   12.2538 C.3     1  UNL1        0.0960
     12 C          66.3124   94.2832   11.3434 C.3     1  UNL1        0.0781
     13 C          66.0375   95.6870   11.7947 C.3     1  UNL1        0.0105
     14 C          66.5801   96.6227   10.7553 C.3     1  UNL1        0.0160
     15 C          67.1902   95.7971    9.6617 C.3     1  UNL1        0.0513
     16 N          67.8500   96.3248    8.4222 N.3     1  UNL1       -0.3222
     17 C          67.0248   94.3513   10.0251 C.3     1  UNL1        0.0245
     18 H          67.8233   97.3444    8.4306 H       1  UNL1        0.1188
     19 H          67.3554   95.9785    7.6001 H       1  UNL1        0.1188
     20 C          61.0883   87.8603   11.0265 C.ar    1  UNL1        0.0257
     21 C          59.6646   88.0222   10.5829 C.ar    1  UNL1        0.1398
     22 F          59.0605   87.0374    9.6263 F       1  UNL1       -0.2042
     23 C          58.8450   89.1690   11.0959 C.ar    1  UNL1        0.0296
     24 C          59.4491   90.1539   12.0525 C.ar    1  UNL1        0.0021
     25 C          60.8729   89.9919   12.4961 C.ar    1  UNL1       -0.0019
     26 C          61.6924   88.8451   11.9831 C.ar    1  UNL1        0.0039
     27 C          62.9268   84.3475   10.8513 C.ar    1  UNL1       -0.0222
     28 C          63.5471   84.4199    9.4876 C.ar    1  UNL1       -0.0043
     29 C          63.3478   85.6391    8.6368 C.ar    1  UNL1       -0.0003
     30 C          62.5282   86.7859    9.1497 C.ar    1  UNL1        0.0000
     31 C          61.9079   86.7135   10.5135 C.ar    1  UNL1        0.0016
     32 C          62.1072   85.4943   11.3643 C.ar    1  UNL1       -0.0042
     33 C          62.9773   83.2209   13.1919 C.3     1  UNL1        0.0050
     34 C          63.1260   83.1283   11.7022 C.3     1  UNL1        0.0264
     35 C          62.7441   87.4311   13.1642 C.3     1  UNL1        0.0330
     36 C          63.6979   86.8328   14.1552 C.3     1  UNL1        0.0241
     37 C          63.8690   87.4625   15.5058 C.3     1  UNL1        0.0928
     38 N          64.1650   88.9288   15.6177 N.am    1  UNL1       -0.2707
     39 C          63.0604   89.8955   15.9263 C.2     1  UNL1        0.4017
     40 O          61.6597   89.3959   16.1231 O.2     1  UNL1       -0.2264
     41 H          65.0843   89.2567   15.4885 H       1  UNL1        0.1527
     42 O          63.3564   91.3617   16.0381 O.3     1  UNL1       -0.4306
     43 C          64.7737   91.8321   16.1802 C.3     1  UNL1        0.2573
@<TRIPOS>BOND
     1    33    34    1
     2    34    27    1
     3    27    28   ar
     4    28    29   ar
     5    29    30   ar
     6    30    31   ar
     7    31    20    1
     8    20    21   ar
     9    21    22    1
    10    21    23   ar
    11    23    24   ar
    12    24    25   ar
    13    25    26   ar
    14    26     1    1
    15     1     2    1
    16     1    35    1
    17    35    36    1
    18    36    37    1
    19    37    38    1
    20    38    39   am
    21    39    40    2
    22    39    42    1
    23    42    43    1
    24     4     1    1
    25     4     5    1
    26     5     6    1
    27     6     7    1
    28     7     8    1
    29     8     9   am
    30     9    10    2
    31    12     9    1
    32    12    13    1
    33    13    14    1
    34    14    15    1
    35    15    16    1
    36    15    17    1
    37     8    11    1
    38    31    32   ar
    39    32    27   ar
    40    26    20   ar
    41    11     4    1
    42    17    12    1
    43     2     3    1
    44    38    41    1
    45    16    18    1
    46    16    19    1
@<TRIPOS>MOLECULE
*****
 43 46 0 0 0
SMALL
GASTEIGER

@<TRIPOS>ATOM
      1 C          62.5355   89.3083   10.5601 C.3     1  UNL1        0.1086
      2 O          63.6016   89.3408    9.5055 O.3     1  UNL1       -0.3826
      3 H          63.7863   90.2610    9.2607 H       1  UNL1        0.2107
      4 C          62.6094   87.8104   10.5888 C.3     1  UNL1        0.0485
      5 C          62.5073   87.0299    9.3119 C.3     1  UNL1        0.0061
      6 C          62.5812   85.5320    9.3406 C.3     1  UNL1        0.0217
      7 C          62.7573   84.8146   10.6461 C.3     1  UNL1        0.0934
      8 N          62.8595   85.5951   11.9229 N.am    1  UNL1       -0.2795
      9 C          63.0356   84.8777   13.2285 C.2     1  UNL1        0.2252
     10 O          63.1378   85.6582   14.5053 O.2     1  UNL1       -0.2749
     11 C          62.7856   87.0930   11.8943 C.3     1  UNL1        0.0960
     12 C          63.1096   83.3798   13.2571 C.3     1  UNL1        0.0781
     13 C          64.3063   82.5492   12.8996 C.3     1  UNL1        0.0105
     14 C          63.9360   81.1055   13.0698 C.3     1  UNL1        0.0160
     15 C          62.5106   81.0440   13.5325 C.3     1  UNL1        0.0513
     16 N          61.7325   79.7960   13.8277 N.3     1  UNL1       -0.3222
     17 C          61.9998   82.4496   13.6483 C.3     1  UNL1        0.0245
     18 H          62.3234   78.9806   13.6654 H       1  UNL1        0.1188
     19 H          60.9166   79.7516   13.2172 H       1  UNL1        0.1188
     20 C          60.0709   88.8696   11.2554 C.ar    1  UNL1        0.0257
     21 C          59.0048   88.8370   12.3100 C.ar    1  UNL1        0.1398
     22 F          57.6063   88.4308   11.9505 F       1  UNL1       -0.2042
     23 C          59.3371   89.2108   13.7242 C.ar    1  UNL1        0.0296
     24 C          60.7356   89.6170   14.0837 C.ar    1  UNL1        0.0021
     25 C          61.8017   89.6495   13.0290 C.ar    1  UNL1       -0.0019
     26 C          61.4694   89.2758   11.6149 C.ar    1  UNL1        0.0039
     27 C          59.5273   89.1420    7.3336 C.ar    1  UNL1       -0.0222
     28 C          59.0739   87.7486    7.0128 C.ar    1  UNL1       -0.0043
     29 C          58.9528   86.7289    8.1062 C.ar    1  UNL1       -0.0003
     30 C          59.2851   87.1025    9.5204 C.ar    1  UNL1        0.0000
     31 C          59.7385   88.4959    9.8411 C.ar    1  UNL1        0.0016
     32 C          59.8596   89.5156    8.7477 C.ar    1  UNL1       -0.0042
     33 C          58.4155   90.7006    5.5773 C.3     1  UNL1        0.0050
     34 C          59.6484   90.1617    6.2402 C.3     1  UNL1        0.0264
     35 C          62.4616   90.8062   10.5315 C.3     1  UNL1        0.0330
     36 C          63.6044   91.6030    9.9756 C.3     1  UNL1        0.0241
     37 C          64.5737   92.2724   10.9042 C.3     1  UNL1        0.0928
     38 N          65.3191   93.4947   10.4564 N.am    1  UNL1       -0.2707
     39 C          66.8095   93.5631   10.6119 C.2     1  UNL1        0.4017
     40 O          67.5545   92.4093   11.2150 O.2     1  UNL1       -0.2264
     41 H          64.8302   94.2520   10.0606 H       1  UNL1        0.1527
     42 O          67.5549   94.7854   10.1642 O.3     1  UNL1       -0.4306
     43 C          67.5746   95.1619    8.7123 C.3     1  UNL1        0.2573
@<TRIPOS>BOND
     1    33    34    1
     2    34    27    1
     3    27    28   ar
     4    28    29   ar
     5    29    30   ar
     6    30    31   ar
     7    31    20    1
     8    20    21   ar
     9    21    22    1
    10    21    23   ar
    11    23    24   ar
    12    24    25   ar
    13    25    26   ar
    14    26     1    1
    15     1     2    1
    16     1    35    1
    17    35    36    1
    18    36    37    1
    19    37    38    1
    20    38    39   am
    21    39    40    2
    22    39    42    1
    23    42    43    1
    24     4     1    1
    25     4     5    1
    26     5     6    1
    27     6     7    1
    28     7     8    1
    29     8     9   am
    30     9    10    2
    31    12     9    1
    32    12    13    1
    33    13    14    1
    34    14    15    1
    35    15    16    1
    36    15    17    1
    37     8    11    1
    38    31    32   ar
    39    32    27   ar
    40    26    20   ar
    41    11     4    1
    42    17    12    1
    43     2     3    1
    44    38    41    1
    45    16    18    1
    46    16    19    1
@<TRIPOS>MOLECULE
*****
 43 46 0 0 0
SMALL
GASTEIGER

@<TRIPOS>ATOM
      1 C          62.2958   89.4515   10.6149 C.3     1  UNL1        0.1086
      2 O          63.4852   89.4870    9.7016 O.3     1  UNL1       -0.3826
      3 H          63.8019   90.4001    9.6185 H       1  UNL1        0.2107
      4 C          62.1969   87.9665   10.4283 C.3     1  UNL1        0.0485
      5 C          61.5833   87.4067    9.1793 C.3     1  UNL1        0.0061
      6 C          61.4844   85.9216    8.9927 C.3     1  UNL1        0.0217
      7 C          61.9991   84.9963   10.0552 C.3     1  UNL1        0.0934
      8 N          62.6128   85.5561   11.3042 N.am    1  UNL1       -0.2795
      9 C          63.1276   84.6307   12.3667 C.2     1  UNL1        0.2252
     10 O          63.7412   85.1904   13.6157 O.2     1  UNL1       -0.2749
     11 C          62.7117   87.0411   11.4908 C.3     1  UNL1        0.0960
     12 C          63.0287   83.1457   12.1801 C.3     1  UNL1        0.0781
     13 C          63.4587   82.3792   10.9645 C.3     1  UNL1        0.0105
     14 C          63.1782   80.9261   11.2095 C.3     1  UNL1        0.0160
     15 C          62.5747   80.7946   12.5764 C.3     1  UNL1        0.0513
     16 N          62.1400   79.5158   13.2289 N.3     1  UNL1       -0.3222
     17 C          62.4823   82.1663   13.1763 C.3     1  UNL1        0.0245
     18 H          62.3172   78.7346   12.5975 H       1  UNL1        0.1188
     19 H          61.1431   79.5634   13.4395 H       1  UNL1        0.1188
     20 C          61.2995   89.4851   13.0141 C.ar    1  UNL1        0.0257
     21 C          60.1102   89.4495   13.9275 C.ar    1  UNL1        0.1398
     22 F          60.3033   89.5186   15.4134 F       1  UNL1       -0.2042
     23 C          58.7277   89.3447   13.3549 C.ar    1  UNL1        0.0296
     24 C          58.5346   89.2755   11.8690 C.ar    1  UNL1        0.0021
     25 C          59.7240   89.3111   10.9556 C.ar    1  UNL1       -0.0019
     26 C          61.1064   89.4159   11.5282 C.ar    1  UNL1        0.0039
     27 C          64.7309   91.0339   14.2698 C.ar    1  UNL1       -0.0222
     28 C          65.4469   89.7994   14.7318 C.ar    1  UNL1       -0.0043
     29 C          64.7804   88.4602   14.6213 C.ar    1  UNL1       -0.0003
     30 C          63.3980   88.3554   14.0487 C.ar    1  UNL1        0.0000
     31 C          62.6820   89.5898   13.5867 C.ar    1  UNL1        0.0016
     32 C          63.3485   90.9291   13.6973 C.ar    1  UNL1       -0.0042
     33 C          66.3638   92.6402   15.4960 C.3     1  UNL1        0.0050
     34 C          65.3974   92.3731   14.3803 C.3     1  UNL1        0.0264
     35 C          62.3948   90.9365   10.8015 C.3     1  UNL1        0.0330
     36 C          63.4511   91.7150   10.0749 C.3     1  UNL1        0.0241
     37 C          64.6179   92.2807   10.8290 C.3     1  UNL1        0.0928
     38 N          65.3321   93.4920   10.3070 N.am    1  UNL1       -0.2707
     39 C          66.8064   93.6495   10.5345 C.2     1  UNL1        0.4017
     40 O          67.5665   92.5956   11.2840 O.2     1  UNL1       -0.2264
     41 H          64.8333   94.1838    9.8152 H       1  UNL1        0.1527
     42 O          67.5206   94.8609   10.0126 O.3     1  UNL1       -0.4306
     43 C          67.5076   95.1644    8.5436 C.3     1  UNL1        0.2573
@<TRIPOS>BOND
     1    33    34    1
     2    34    27    1
     3    27    28   ar
     4    28    29   ar
     5    29    30   ar
     6    30    31   ar
     7    31    20    1
     8    20    21   ar
     9    21    22    1
    10    21    23   ar
    11    23    24   ar
    12    24    25   ar
    13    25    26   ar
    14    26     1    1
    15     1     2    1
    16     1    35    1
    17    35    36    1
    18    36    37    1
    19    37    38    1
    20    38    39   am
    21    39    40    2
    22    39    42    1
    23    42    43    1
    24     4     1    1
    25     4     5    1
    26     5     6    1
    27     6     7    1
    28     7     8    1
    29     8     9   am
    30     9    10    2
    31    12     9    1
    32    12    13    1
    33    13    14    1
    34    14    15    1
    35    15    16    1
    36    15    17    1
    37     8    11    1
    38    31    32   ar
    39    32    27   ar
    40    26    20   ar
    41    11     4    1
    42    17    12    1
    43     2     3    1
    44    38    41    1
    45    16    18    1
    46    16    19    1
@<TRIPOS>MOLECULE
*****
 43 46 0 0 0
SMALL
GASTEIGER

@<TRIPOS>ATOM
      1 C          62.3831   87.0554   12.1679 C.3     1  UNL1        0.1086
      2 O          63.4240   86.9430   13.2420 O.3     1  UNL1       -0.3826
      3 H          63.3335   86.0883   13.6918 H       1  UNL1        0.2107
      4 C          62.8995   88.4174   11.8099 C.3     1  UNL1        0.0485
      5 C          62.5602   89.0225   10.4800 C.3     1  UNL1        0.0061
      6 C          63.0767   90.3846   10.1221 C.3     1  UNL1        0.0217
      7 C          63.9324   91.1415   11.0941 C.3     1  UNL1        0.0934
      8 N          64.2718   90.5363   12.4240 N.am    1  UNL1       -0.2795
      9 C          65.1276   91.2933   13.3960 C.2     1  UNL1        0.2252
     10 O          65.4670   90.6881   14.7259 O.2     1  UNL1       -0.2749
     11 C          63.7554   89.1743   12.7819 C.3     1  UNL1        0.0960
     12 C          65.6441   92.6553   13.0381 C.3     1  UNL1        0.0781
     13 C          66.2793   93.6333   13.9814 C.3     1  UNL1        0.0105
     14 C          66.6438   94.8609   13.2002 C.3     1  UNL1        0.0160
     15 C          66.2338   94.6416   11.7742 C.3     1  UNL1        0.0513
     16 N          66.4106   95.6146   10.6464 N.3     1  UNL1       -0.3222
     17 C          65.6159   93.2785   11.6739 C.3     1  UNL1        0.0245
     18 H          66.8580   96.4622   10.9955 H       1  UNL1        0.1188
     19 H          65.4991   95.8486   10.2531 H       1  UNL1        0.1188
     20 C          61.2991   86.1608    9.9827 C.ar    1  UNL1        0.0257
     21 C          60.2583   86.2732    8.9085 C.ar    1  UNL1        0.1398
     22 F          60.2152   85.2663    7.7976 F       1  UNL1       -0.2042
     23 C          59.2604   87.3926    8.9452 C.ar    1  UNL1        0.0296
     24 C          59.3034   88.3996   10.0561 C.ar    1  UNL1        0.0021
     25 C          60.3444   88.2872   11.1304 C.ar    1  UNL1       -0.0019
     26 C          61.3422   87.1678   11.0936 C.ar    1  UNL1        0.0039
     27 C          63.0723   82.6916   10.7379 C.ar    1  UNL1       -0.0222
     28 C          64.2925   82.8027    9.8727 C.ar    1  UNL1       -0.0043
     29 C          64.5150   84.0332    9.0442 C.ar    1  UNL1       -0.0003
     30 C          63.5172   85.1525    9.0809 C.ar    1  UNL1        0.0000
     31 C          62.2970   85.0414    9.9460 C.ar    1  UNL1        0.0016
     32 C          62.0745   83.8110   10.7745 C.ar    1  UNL1       -0.0042
     33 C          63.4790   81.3466   12.9232 C.3     1  UNL1        0.0050
     34 C          62.8498   81.4611   11.5664 C.3     1  UNL1        0.0264
     35 C          61.8666   85.6934   12.5258 C.3     1  UNL1        0.0330
     36 C          62.7205   84.7534   13.3242 C.3     1  UNL1        0.0241
     37 C          62.1965   84.1646   14.6004 C.3     1  UNL1        0.0928
     38 N          62.2441   84.9624   15.8697 N.am    1  UNL1       -0.2707
     39 C          63.5407   85.5574   16.3334 C.2     1  UNL1        0.4017
     40 O          64.7896   85.3544   15.5278 O.2     1  UNL1       -0.2264
     41 H          61.4244   85.0956   16.3984 H       1  UNL1        0.1527
     42 O          63.5883   86.3552   17.6027 O.3     1  UNL1       -0.4306
     43 C          62.4188   87.2078   17.9970 C.3     1  UNL1        0.2573
@<TRIPOS>BOND
     1    33    34    1
     2    34    27    1
     3    27    28   ar
     4    28    29   ar
     5    29    30   ar
     6    30    31   ar
     7    31    20    1
     8    20    21   ar
     9    21    22    1
    10    21    23   ar
    11    23    24   ar
    12    24    25   ar
    13    25    26   ar
    14    26     1    1
    15     1     2    1
    16     1    35    1
    17    35    36    1
    18    36    37    1
    19    37    38    1
    20    38    39   am
    21    39    40    2
    22    39    42    1
    23    42    43    1
    24     4     1    1
    25     4     5    1
    26     5     6    1
    27     6     7    1
    28     7     8    1
    29     8     9   am
    30     9    10    2
    31    12     9    1
    32    12    13    1
    33    13    14    1
    34    14    15    1
    35    15    16    1
    36    15    17    1
    37     8    11    1
    38    31    32   ar
    39    32    27   ar
    40    26    20   ar
    41    11     4    1
    42    17    12    1
    43     2     3    1
    44    38    41    1
    45    16    18    1
    46    16    19    1
@<TRIPOS>MOLECULE
*****
 43 46 0 0 0
SMALL
GASTEIGER

@<TRIPOS>ATOM
      1 C          57.4205   92.7683   -3.3134 C.3     1  UNL1        0.1086
      2 O          58.2571   91.5443   -3.5411 O.3     1  UNL1       -0.3826
      3 H          57.7390   90.7536   -3.3238 H       1  UNL1        0.2107
      4 C          58.5660   93.6325   -3.7503 C.3     1  UNL1        0.0485
      5 C          58.3666   94.6512   -4.8331 C.3     1  UNL1        0.0061
      6 C          59.5122   95.5154   -5.2700 C.3     1  UNL1        0.0217
      7 C          60.8571   95.3609   -4.6241 C.3     1  UNL1        0.0934
      8 N          61.0565   94.3423   -3.5412 N.am    1  UNL1       -0.2795
      9 C          62.4015   94.1878   -2.8953 C.2     1  UNL1        0.2252
     10 O          62.6009   93.1692   -1.8124 O.2     1  UNL1       -0.2749
     11 C          59.9110   93.4781   -3.1043 C.3     1  UNL1        0.0960
     12 C          63.5470   95.0520   -3.3322 C.3     1  UNL1        0.0781
     13 C          64.3101   96.0092   -2.4652 C.3     1  UNL1        0.0105
     14 C          65.3653   96.6595   -3.3101 C.3     1  UNL1        0.0160
     15 C          65.2544   96.1043   -4.6991 C.3     1  UNL1        0.0513
     16 N          66.1159   96.4772   -5.8690 N.3     1  UNL1       -0.3222
     17 C          64.1306   95.1109   -4.7128 C.3     1  UNL1        0.0245
     18 H          66.8004   97.1753   -5.5783 H       1  UNL1        0.1188
     19 H          65.5325   96.8618   -6.6120 H       1  UNL1        0.1188
     20 C          56.7757   94.8115   -1.8438 C.ar    1  UNL1        0.0257
     21 C          55.9392   96.0356   -1.6161 C.ar    1  UNL1        0.1398
     22 F          56.1311   96.8547   -0.3742 F       1  UNL1       -0.2042
     23 C          54.9108   96.4406   -2.6303 C.ar    1  UNL1        0.0296
     24 C          54.7190   95.6214   -3.8721 C.ar    1  UNL1        0.0021
     25 C          55.5556   94.3973   -4.0998 C.ar    1  UNL1       -0.0019
     26 C          56.5839   93.9924   -3.0857 C.ar    1  UNL1        0.0039
     27 C          59.9018   94.9698    0.5961 C.ar    1  UNL1       -0.0222
     28 C          59.8609   93.5968    1.1986 C.ar    1  UNL1       -0.0043
     29 C          58.7917   92.6286    0.7869 C.ar    1  UNL1       -0.0003
     30 C          57.7633   93.0335   -0.2272 C.ar    1  UNL1        0.0000
     31 C          57.8042   94.4066   -0.8297 C.ar    1  UNL1        0.0016
     32 C          58.8734   95.3747   -0.4180 C.ar    1  UNL1       -0.0042
     33 C          62.4144   95.6073    0.7689 C.3     1  UNL1        0.0050
     34 C          60.9710   95.9380    1.0077 C.3     1  UNL1        0.0264
     35 C          56.2750   91.9041   -2.8765 C.3     1  UNL1        0.0330
     36 C          55.6196   90.9759   -3.8557 C.3     1  UNL1        0.0241
     37 C          56.0072   91.0184   -5.3042 C.3     1  UNL1        0.0928
     38 N          54.9483   90.9721   -6.3656 N.am    1  UNL1       -0.2707
     39 C          54.0699   89.7633   -6.4965 C.2     1  UNL1        0.4017
     40 O          54.2505   88.6006   -5.5660 O.2     1  UNL1       -0.2264
     41 H          54.8298   91.7351   -6.9763 H       1  UNL1        0.1527
     42 O          53.0110   89.7170   -7.5579 O.3     1  UNL1       -0.4306
     43 C          51.5882   90.0434   -7.2126 C.3     1  UNL1        0.2573
@<TRIPOS>BOND
     1    33    34    1
     2    34    27    1
     3    27    28   ar
     4    28    29   ar
     5    29    30   ar
     6    30    31   ar
     7    31    20    1
     8    20    21   ar
     9    21    22    1
    10    21    23   ar
    11    23    24   ar
    12    24    25   ar
    13    25    26   ar
    14    26     1    1
    15     1     2    1
    16     1    35    1
    17    35    36    1
    18    36    37    1
    19    37    38    1
    20    38    39   am
    21    39    40    2
    22    39    42    1
    23    42    43    1
    24     4     1    1
    25     4     5    1
    26     5     6    1
    27     6     7    1
    28     7     8    1
    29     8     9   am
    30     9    10    2
    31    12     9    1
    32    12    13    1
    33    13    14    1
    34    14    15    1
    35    15    16    1
    36    15    17    1
    37     8    11    1
    38    31    32   ar
    39    32    27   ar
    40    26    20   ar
    41    11     4    1
    42    17    12    1
    43     2     3    1
    44    38    41    1
    45    16    18    1
    46    16    19    1
@<TRIPOS>MOLECULE
*****
 43 46 0 0 0
SMALL
GASTEIGER

@<TRIPOS>ATOM
      1 C          58.2142   93.0512   -2.6138 C.3     1  UNL1        0.1086
      2 O          58.5923   91.7832   -3.3203 O.3     1  UNL1       -0.3826
      3 H          58.0884   91.0428   -2.9476 H       1  UNL1        0.2107
      4 C          59.1744   93.8171   -3.4748 C.3     1  UNL1        0.0485
      5 C          58.6934   94.9938   -4.2711 C.3     1  UNL1        0.0061
      6 C          59.6536   95.7598   -5.1321 C.3     1  UNL1        0.0217
      7 C          61.0948   95.3491   -5.1968 C.3     1  UNL1        0.0934
      8 N          61.5759   94.1725   -4.4004 N.am    1  UNL1       -0.2795
      9 C          63.0172   93.7618   -4.4651 C.2     1  UNL1        0.2252
     10 O          63.4982   92.5852   -3.6688 O.2     1  UNL1       -0.2749
     11 C          60.6157   93.4065   -3.5395 C.3     1  UNL1        0.0960
     12 C          63.9773   94.5278   -5.3261 C.3     1  UNL1        0.0781
     13 C          63.9655   94.5843   -6.8250 C.3     1  UNL1        0.0105
     14 C          65.0989   95.4633   -7.2646 C.3     1  UNL1        0.0160
     15 C          65.8110   95.9499   -6.0374 C.3     1  UNL1        0.0513
     16 N          67.0064   96.8557   -6.0127 N.3     1  UNL1       -0.3222
     17 C          65.1179   95.3718   -4.8394 C.3     1  UNL1        0.0245
     18 H          67.2698   97.0972   -6.9680 H       1  UNL1        0.1188
     19 H          67.7842   96.3798   -5.5555 H       1  UNL1        0.1188
     20 C          58.7187   94.8666   -0.8250 C.ar    1  UNL1        0.0257
     21 C          58.3407   96.1346   -0.1185 C.ar    1  UNL1        0.1398
     22 F          59.2233   96.6819    0.9638 F       1  UNL1       -0.2042
     23 C          57.0800   96.8554   -0.4944 C.ar    1  UNL1        0.0296
     24 C          56.1974   96.3081   -1.5768 C.ar    1  UNL1        0.0021
     25 C          56.5755   95.0400   -2.2833 C.ar    1  UNL1       -0.0019
     26 C          57.8361   94.3193   -1.9073 C.ar    1  UNL1        0.0039
     27 C          62.5742   94.0222   -0.4098 C.ar    1  UNL1       -0.0222
     28 C          62.5006   92.7043    0.3026 C.ar    1  UNL1       -0.0043
     29 C          61.1664   92.1071    0.6392 C.ar    1  UNL1       -0.0003
     30 C          59.9058   92.8278    0.2633 C.ar    1  UNL1        0.0000
     31 C          59.9794   94.1458   -0.4491 C.ar    1  UNL1        0.0016
     32 C          61.3136   94.7430   -0.7856 C.ar    1  UNL1       -0.0042
     33 C          63.9843   95.9782   -1.3771 C.3     1  UNL1        0.0050
     34 C          63.9084   94.6195   -0.7463 C.3     1  UNL1        0.0264
     35 C          57.2541   92.2852   -1.7528 C.3     1  UNL1        0.0330
     36 C          55.8734   91.9828   -2.2550 C.3     1  UNL1        0.0241
     37 C          55.6008   90.6918   -2.9684 C.3     1  UNL1        0.0928
     38 N          55.8549   90.5813   -4.4426 N.am    1  UNL1       -0.2707
     39 C          55.7643   91.7998   -5.3126 C.2     1  UNL1        0.4017
     40 O          55.4195   93.1288   -4.7085 O.2     1  UNL1       -0.2264
     41 H          56.0812   89.7091   -4.8391 H       1  UNL1        0.1527
     42 O          56.0184   91.6894   -6.7868 O.3     1  UNL1       -0.4306
     43 C          57.4248   91.5988   -7.3008 C.3     1  UNL1        0.2573
@<TRIPOS>BOND
     1    33    34    1
     2    34    27    1
     3    27    28   ar
     4    28    29   ar
     5    29    30   ar
     6    30    31   ar
     7    31    20    1
     8    20    21   ar
     9    21    22    1
    10    21    23   ar
    11    23    24   ar
    12    24    25   ar
    13    25    26   ar
    14    26     1    1
    15     1     2    1
    16     1    35    1
    17    35    36    1
    18    36    37    1
    19    37    38    1
    20    38    39   am
    21    39    40    2
    22    39    42    1
    23    42    43    1
    24     4     1    1
    25     4     5    1
    26     5     6    1
    27     6     7    1
    28     7     8    1
    29     8     9   am
    30     9    10    2
    31    12     9    1
    32    12    13    1
    33    13    14    1
    34    14    15    1
    35    15    16    1
    36    15    17    1
    37     8    11    1
    38    31    32   ar
    39    32    27   ar
    40    26    20   ar
    41    11     4    1
    42    17    12    1
    43     2     3    1
    44    38    41    1
    45    16    18    1
    46    16    19    1
@<TRIPOS>MOLECULE
*****
 43 46 0 0 0
SMALL
GASTEIGER

@<TRIPOS>ATOM
      1 C          61.7702   89.3585    9.5888 C.3     1  UNL1        0.1086
      2 O          62.8243   89.2062    8.5325 O.3     1  UNL1       -0.3826
      3 H          62.4812   88.6573    7.8101 H       1  UNL1        0.2107
      4 C          62.7057   90.2048   10.4003 C.3     1  UNL1        0.0485
      5 C          63.2809   91.4601    9.8143 C.3     1  UNL1        0.0061
      6 C          64.2165   92.3065   10.6259 C.3     1  UNL1        0.0217
      7 C          64.5767   91.8975   12.0234 C.3     1  UNL1        0.0934
      8 N          64.0014   90.6422   12.6093 N.am    1  UNL1       -0.2795
      9 C          64.3617   90.2333   14.0069 C.2     1  UNL1        0.2252
     10 O          63.7864   88.9780   14.5928 O.2     1  UNL1       -0.2749
     11 C          63.0660   89.7959   11.7978 C.3     1  UNL1        0.0960
     12 C          65.2971   91.0796   14.8184 C.3     1  UNL1        0.0781
     13 C          64.9138   91.9633   15.9682 C.3     1  UNL1        0.0105
     14 C          66.1600   92.6207   16.4830 C.3     1  UNL1        0.0160
     15 C          67.3134   92.1433   15.6514 C.3     1  UNL1        0.0513
     16 N          68.7482   92.5474   15.8191 N.3     1  UNL1       -0.3222
     17 C          66.7801   91.1908   14.6226 C.3     1  UNL1        0.0245
     18 H          68.8276   93.2055   16.5943 H       1  UNL1        0.1188
     19 H          69.0791   92.9901   14.9619 H       1  UNL1        0.1188
     20 C          60.4106   88.3700   11.5698 C.ar    1  UNL1        0.0257
     21 C          59.3566   88.5223   12.6260 C.ar    1  UNL1        0.1398
     22 F          59.0511   87.3814   13.5507 F       1  UNL1       -0.2042
     23 C          58.6080   89.8155   12.7577 C.ar    1  UNL1        0.0296
     24 C          58.9135   90.9564   11.8330 C.ar    1  UNL1        0.0021
     25 C          59.9676   90.8040   10.7767 C.ar    1  UNL1       -0.0019
     26 C          60.7161   89.5108   10.6451 C.ar    1  UNL1        0.0039
     27 C          62.8730   85.3636   12.3752 C.ar    1  UNL1       -0.0222
     28 C          62.6564   84.4904   11.1750 C.ar    1  UNL1       -0.0043
     29 C          61.6912   84.9104   10.1064 C.ar    1  UNL1       -0.0003
     30 C          60.9426   86.2036   10.2379 C.ar    1  UNL1        0.0000
     31 C          61.1592   87.0767   11.4382 C.ar    1  UNL1        0.0016
     32 C          62.1244   86.6568   12.5068 C.ar    1  UNL1       -0.0042
     33 C          63.8194   85.6235   14.7808 C.3     1  UNL1        0.0050
     34 C          63.8382   84.9436   13.4439 C.3     1  UNL1        0.0264
     35 C          60.8348   88.5122    8.7773 C.3     1  UNL1        0.0330
     36 C          59.6219   89.1289    8.1459 C.3     1  UNL1        0.0241
     37 C          59.5001   89.1840    6.6519 C.3     1  UNL1        0.0928
     38 N          59.7650   90.4689    5.9247 N.am    1  UNL1       -0.2707
     39 C          58.6215   91.2689    5.3747 C.2     1  UNL1        0.4017
     40 O          57.2131   90.7840    5.5520 O.2     1  UNL1       -0.2264
     41 H          60.6893   90.7872    5.8084 H       1  UNL1        0.1527
     42 O          58.8864   92.5538    4.6475 O.3     1  UNL1       -0.4306
     43 C          59.9270   92.6040    3.5683 C.3     1  UNL1        0.2573
@<TRIPOS>BOND
     1    33    34    1
     2    34    27    1
     3    27    28   ar
     4    28    29   ar
     5    29    30   ar
     6    30    31   ar
     7    31    20    1
     8    20    21   ar
     9    21    22    1
    10    21    23   ar
    11    23    24   ar
    12    24    25   ar
    13    25    26   ar
    14    26     1    1
    15     1     2    1
    16     1    35    1
    17    35    36    1
    18    36    37    1
    19    37    38    1
    20    38    39   am
    21    39    40    2
    22    39    42    1
    23    42    43    1
    24     4     1    1
    25     4     5    1
    26     5     6    1
    27     6     7    1
    28     7     8    1
    29     8     9   am
    30     9    10    2
    31    12     9    1
    32    12    13    1
    33    13    14    1
    34    14    15    1
    35    15    16    1
    36    15    17    1
    37     8    11    1
    38    31    32   ar
    39    32    27   ar
    40    26    20   ar
    41    11     4    1
    42    17    12    1
    43     2     3    1
    44    38    41    1
    45    16    18    1
    46    16    19    1
