@<TRIPOS>MOLECULE
*****
 38 42 0 0 0
SMALL
GASTEIGER

@<TRIPOS>ATOM
      1 C          62.4034   88.7970   11.5886 C.3     1  UNL1        0.0227
      2 C          61.6118   89.4849   10.5163 C.3     1  UNL1        0.0076
      3 C          60.8749   88.6745    9.4914 C.3     1  UNL1        0.0336
      4 C          60.8355   90.1738    9.4651 C.3     1  UNL1        0.0033
      5 C          60.9296   87.1763    9.5389 C.3     1  UNL1        0.0033
      6 C          60.1073   86.6461    8.4021 C.3     1  UNL1        0.0035
      7 C          59.5442   87.8166    7.6519 C.3     1  UNL1        0.0395
      8 C          60.0186   89.0702    8.3252 C.3     1  UNL1        0.1410
      9 O          60.2242   90.5237    8.6337 O.3     1  UNL1       -0.3753
     10 C          61.7214   86.4884   10.6114 C.3     1  UNL1        0.0011
     11 C          61.7762   84.9901   10.6589 C.3     1  UNL1        0.0044
     12 C          62.5678   84.3022   11.7313 C.3     1  UNL1        0.0221
     13 C          63.3047   85.1126   12.7562 C.2     1  UNL1       -0.0417
     14 C          64.0964   84.4247   13.8285 C.2     1  UNL1        0.0290
     15 C          64.8333   85.2350   14.8534 C.2     1  UNL1        0.1725
     16 O          65.6250   84.5471   15.9258 O.2     1  UNL1       -0.2914
     17 C          64.7785   86.7333   14.8058 C.3     1  UNL1        0.0695
     18 C          63.9868   87.4212   13.7335 C.3     1  UNL1        0.0121
     19 C          63.2500   86.6108   12.7086 C.3     1  UNL1        0.0191
     20 C          62.4582   87.2987   11.6362 C.3     1  UNL1        0.0078
     21 H          59.7442   91.0628    7.9857 H       1  UNL1        0.2114
     22 C          64.6141   91.2279   14.6633 C.ar    1  UNL1        0.0478
     23 C          65.0919   91.2031   13.2417 C.ar    1  UNL1        0.0142
     24 C          64.3551   90.3928   12.2168 C.ar    1  UNL1       -0.0030
     25 C          63.1404   89.6073   12.6136 C.ar    1  UNL1       -0.0224
     26 C          62.6625   89.6321   14.0352 C.ar    1  UNL1       -0.0030
     27 C          63.3994   90.4424   15.0601 C.ar    1  UNL1        0.0142
     28 N          65.3510   92.0382   15.6882 N.pl3   1  UNL1       -0.3074
     29 C          64.7420   92.2721   17.0389 C.3     1  UNL1        0.1121
     30 C          67.9348   92.0131   15.9587 C.3     1  UNL1        0.0214
     31 C          66.6969   92.6147   15.3624 C.3     1  UNL1        0.0730
     32 C          66.8049   93.7928   14.4401 C.3     1  UNL1        0.0214
     33 C          59.2269   89.7581    7.2527 C.1     1  UNL1       -0.0658
     34 C          58.4352   90.4460    6.1804 C.1     1  UNL1       -0.0908
     35 C          57.6435   91.1339    5.1079 C.3     1  UNL1        0.0541
     36 C          58.8760   91.8674    4.6685 C.3     1  UNL1        0.0130
     37 C          56.4110   90.4004    5.5472 C.3     1  UNL1        0.0130
     38 C          56.8519   91.8218    4.0355 C.3     1  UNL1        0.0130
@<TRIPOS>BOND
     1    30    31    1
     2    31    32    1
     3    31    28    1
     4    28    29    1
     5    28    22    1
     6    22    23   ar
     7    23    24   ar
     8    24    25   ar
     9     1    25    1
    10     1     2    1
    11     2     3    1
    12     3     4    1
    13     3     5    1
    14     5     6    1
    15     6     7    1
    16     7     8    1
    17     8     9    1
    18     8    33    1
    19    33    34    3
    20    34    35    1
    21    35    36    1
    22    35    37    1
    23    35    38    1
    24     5    10    1
    25    10    11    1
    26    11    12    1
    27    12    13    1
    28    13    14    2
    29    14    15    1
    30    15    16    2
    31    15    17    1
    32    17    18    1
    33    19    18    1
    34    19    20    1
    35    25    26   ar
    36    26    27   ar
    37    27    22   ar
    38    20     1    1
    39     8     3    1
    40    20    10    1
    41    19    13    1
    42     9    21    1
