@<TRIPOS>MOLECULE
*****
 35 39 0 0 0
SMALL
GASTEIGER

@<TRIPOS>ATOM
      1 C          60.3293   87.9524    9.5040 C.ar    1  UNL1        0.1355
      2 C          59.8563   89.2384   10.1143 C.ar    1  UNL1        0.0367
      3 C          60.8520   90.2368   10.6257 C.ar    1  UNL1        0.0076
      4 C          62.3209   89.9492   10.5268 C.ar    1  UNL1        0.0538
      5 C          62.7939   88.6632    9.9165 C.ar    1  UNL1        0.0041
      6 C          61.7981   87.6648    9.4051 C.ar    1  UNL1        0.0232
      7 C          63.3168   90.9477   11.0382 C.2     1  UNL1        0.2527
      8 O          63.6895   92.1329   10.1979 O.2     1  UNL1       -0.2696
      9 N          63.9397   90.7607   12.3898 N.am    1  UNL1       -0.2551
     10 C          63.6666   89.6309   13.3379 C.3     1  UNL1        0.1032
     11 C          64.5033   89.8428   14.5647 C.3     1  UNL1        0.0495
     12 C          65.2935   91.1035   14.3748 C.ar    1  UNL1       -0.0067
     13 C          66.2853   91.8082   15.2522 C.ar    1  UNL1       -0.0030
     14 C          66.9286   93.0803   14.7855 C.ar    1  UNL1       -0.0002
     15 C          66.5803   93.6476   13.4413 C.ar    1  UNL1        0.0013
     16 C          65.5886   92.9429   12.5639 C.ar    1  UNL1        0.0146
     17 C          64.9452   91.6709   13.0307 C.ar    1  UNL1        0.0502
     18 C          58.9801   86.9260    7.5351 C.3     1  UNL1        0.2525
     19 O          59.3334   86.9540    8.9926 O.3     1  UNL1       -0.4717
     20 C          62.2711   86.3788    8.7949 C.3     1  UNL1        0.0943
     21 S          62.0828   85.0854    9.5310 S.3     1  UNL1       -0.0724
     22 C          62.6088   84.9338   10.9275 C.ar    1  UNL1        0.1719
     23 N          62.4506   85.9254   12.0417 N.ar    1  UNL1       -0.2210
     24 C          63.1294   85.3684   13.2578 C.ar    1  UNL1        0.1014
     25 C          63.2961   85.9051   14.6485 C.ar    1  UNL1        0.0503
     26 C          64.0404   85.1057   15.6768 C.ar    1  UNL1        0.1417
     27 F          64.2071   85.6424   17.0675 F       1  UNL1       -0.2041
     28 C          64.6181   83.7697   15.3141 C.ar    1  UNL1        0.0312
     29 C          64.4513   83.2331   13.9233 C.ar    1  UNL1        0.0211
     30 C          63.7070   84.0324   12.8952 C.ar    1  UNL1        0.0797
     31 N          63.3852   83.7638   11.4550 N.ar    1  UNL1       -0.3011
     32 C          63.7721   82.5401   10.6785 C.3     1  UNL1        0.1496
     33 C          63.1045   81.2277   10.9654 C.2     1  UNL1        0.0733
     34 O          62.9968   80.1897    9.8879 O.co2   1  UNL1       -0.5472
     35 O          62.5448   80.9534   12.3297 O.co2   1  UNL1       -0.5472
@<TRIPOS>UNITY_ATOM_ATTR
34 1
charge -1
@<TRIPOS>BOND
     1    18    19    1
     2    19     1    1
     3     1     2   ar
     4     2     3   ar
     5     3     4   ar
     6     4     7    1
     7     7     8    2
     8     7     9   am
     9     9    10    1
    10    10    11    1
    11    11    12    1
    12    12    13   ar
    13    13    14   ar
    14    14    15   ar
    15    15    16   ar
    16    16    17   ar
    17     4     5   ar
    18     5     6   ar
    19     6    20    1
    20    20    21    1
    21    21    22    1
    22    22    23   ar
    23    23    24   ar
    24    24    25   ar
    25    25    26   ar
    26    26    27    1
    27    26    28   ar
    28    28    29   ar
    29    29    30   ar
    30    30    31   ar
    31    31    32    1
    32    32    33    1
    33    33    34   ar
    34    33    35   ar
    35     6     1   ar
    36    31    22   ar
    37    17     9    1
    38    30    24   ar
    39    17    12   ar
@<TRIPOS>MOLECULE
*****
 35 39 0 0 0
SMALL
GASTEIGER

@<TRIPOS>ATOM
      1 C          63.4283   87.2858   16.3546 C.ar    1  UNL1        0.1355
      2 C          63.1303   88.7325   16.6159 C.ar    1  UNL1        0.0367
      3 C          63.3786   89.7545   15.5464 C.ar    1  UNL1        0.0076
      4 C          63.9250   89.3298   14.2156 C.ar    1  UNL1        0.0538
      5 C          64.2229   87.8831   13.9543 C.ar    1  UNL1        0.0041
      6 C          63.9746   86.8611   15.0237 C.ar    1  UNL1        0.0232
      7 C          64.1733   90.3518   13.1460 C.2     1  UNL1        0.2527
      8 O          63.5715   90.1731   11.7838 O.2     1  UNL1       -0.2696
      9 N          65.0234   91.5524   13.4388 N.am    1  UNL1       -0.2551
     10 C          65.6882   91.8642   14.7468 C.3     1  UNL1        0.1032
     11 C          66.4337   93.1566   14.5914 C.3     1  UNL1        0.0495
     12 C          66.2296   93.6435   13.1874 C.ar    1  UNL1       -0.0067
     13 C          66.7248   94.8615   12.4655 C.ar    1  UNL1       -0.0030
     14 C          66.3485   95.0881   11.0313 C.ar    1  UNL1       -0.0002
     15 C          65.4769   94.0967   10.3190 C.ar    1  UNL1        0.0013
     16 C          64.9817   92.8787   11.0408 C.ar    1  UNL1        0.0146
     17 C          65.3580   92.6521   12.4750 C.ar    1  UNL1        0.0502
     18 C          62.6558   86.6914   18.7630 C.3     1  UNL1        0.2525
     19 O          63.1800   86.2638   17.4241 O.3     1  UNL1       -0.4717
     20 C          64.2726   85.4144   14.7624 C.3     1  UNL1        0.0943
     21 S          63.2729   84.5615   14.0391 S.3     1  UNL1       -0.0724
     22 C          62.8332   84.9326   12.6538 C.ar    1  UNL1        0.1719
     23 N          61.8592   86.0165   12.2987 N.ar    1  UNL1       -0.2210
     24 C          61.7144   86.0387   10.8059 C.ar    1  UNL1        0.1014
     25 C          60.8913   86.8953    9.8900 C.ar    1  UNL1        0.0503
     26 C          60.9528   86.6815    8.4065 C.ar    1  UNL1        0.1417
     27 F          60.1298   87.5381    7.4905 F       1  UNL1       -0.2041
     28 C          61.8374   85.6113    7.8390 C.ar    1  UNL1        0.0312
     29 C          62.6605   84.7548    8.7550 C.ar    1  UNL1        0.0211
     30 C          62.5990   84.9685   10.2384 C.ar    1  UNL1        0.0797
     31 N          63.2905   84.2848   11.3805 N.ar    1  UNL1       -0.3011
     32 C          64.2676   83.1523   11.2689 C.3     1  UNL1        0.1496
     33 C          63.8139   81.7435   11.5126 C.2     1  UNL1        0.0733
     34 O          63.2554   80.9294   10.3833 O.co2   1  UNL1       -0.5472
     35 O          63.9187   81.1487   12.8857 O.co2   1  UNL1       -0.5472
@<TRIPOS>UNITY_ATOM_ATTR
34 1
charge -1
@<TRIPOS>BOND
     1    18    19    1
     2    19     1    1
     3     1     2   ar
     4     2     3   ar
     5     3     4   ar
     6     4     7    1
     7     7     8    2
     8     7     9   am
     9     9    10    1
    10    10    11    1
    11    11    12    1
    12    12    13   ar
    13    13    14   ar
    14    14    15   ar
    15    15    16   ar
    16    16    17   ar
    17     4     5   ar
    18     5     6   ar
    19     6    20    1
    20    20    21    1
    21    21    22    1
    22    22    23   ar
    23    23    24   ar
    24    24    25   ar
    25    25    26   ar
    26    26    27    1
    27    26    28   ar
    28    28    29   ar
    29    29    30   ar
    30    30    31   ar
    31    31    32    1
    32    32    33    1
    33    33    34   ar
    34    33    35   ar
    35     6     1   ar
    36    31    22   ar
    37    17     9    1
    38    30    24   ar
    39    17    12   ar
@<TRIPOS>MOLECULE
*****
 35 39 0 0 0
SMALL
GASTEIGER

@<TRIPOS>ATOM
      1 C          60.4759   88.3967    9.4053 C.ar    1  UNL1        0.1355
      2 C          60.1772   89.7495    9.9804 C.ar    1  UNL1        0.0367
      3 C          61.0257   90.2970   11.0895 C.ar    1  UNL1        0.0076
      4 C          62.1730   89.4917   11.6235 C.ar    1  UNL1        0.0538
      5 C          62.4718   88.1390   11.0484 C.ar    1  UNL1        0.0041
      6 C          61.6232   87.5914    9.9393 C.ar    1  UNL1        0.0232
      7 C          63.0216   90.0393   12.7327 C.2     1  UNL1        0.2527
      8 O          62.8559   89.5199   14.1300 O.2     1  UNL1       -0.2696
      9 N          64.0359   91.1061   12.4444 N.am    1  UNL1       -0.2551
     10 C          64.3131   91.7200   11.1041 C.3     1  UNL1        0.1032
     11 C          65.3995   92.7396   11.2772 C.3     1  UNL1        0.0495
     12 C          65.7938   92.7559   12.7243 C.ar    1  UNL1       -0.0067
     13 C          66.8114   93.5596   13.4784 C.ar    1  UNL1       -0.0030
     14 C          66.9861   93.3537   14.9539 C.ar    1  UNL1       -0.0002
     15 C          66.1433   92.3440   15.6752 C.ar    1  UNL1        0.0013
     16 C          65.1258   91.5404   14.9212 C.ar    1  UNL1        0.0146
     17 C          64.9510   91.7463   13.4457 C.ar    1  UNL1        0.0502
     18 C          59.2536   88.7236    7.1360 C.3     1  UNL1        0.2525
     19 O          59.6273   87.8492    8.2962 O.3     1  UNL1       -0.4717
     20 C          61.9220   86.2387    9.3642 C.3     1  UNL1        0.0943
     21 S          63.1444   85.4895    9.8052 S.3     1  UNL1       -0.0724
     22 C          63.0148   84.3344   10.7533 C.ar    1  UNL1        0.1719
     23 N          62.8802   82.8904   10.3705 N.ar    1  UNL1       -0.2210
     24 C          62.7792   82.0842   11.6314 C.ar    1  UNL1        0.1014
     25 C          62.6309   80.6109   11.8715 C.ar    1  UNL1        0.0503
     26 C          62.5547   80.0835   13.2737 C.ar    1  UNL1        0.1417
     27 F          62.4064   78.6103   13.5138 F       1  UNL1       -0.2041
     28 C          62.6268   81.0292   14.4357 C.ar    1  UNL1        0.0312
     29 C          62.7751   82.5025   14.1955 C.ar    1  UNL1        0.0211
     30 C          62.8513   83.0299   12.7934 C.ar    1  UNL1        0.0797
     31 N          62.9969   84.4207   12.2507 N.ar    1  UNL1       -0.3011
     32 C          63.1055   85.6771   13.0628 C.3     1  UNL1        0.1496
     33 C          64.0342   85.7316   14.2395 C.2     1  UNL1        0.0733
     34 O          63.7186   86.6237   15.4034 O.co2   1  UNL1       -0.5472
     35 O          65.2785   84.8940   14.2524 O.co2   1  UNL1       -0.5472
@<TRIPOS>UNITY_ATOM_ATTR
34 1
charge -1
@<TRIPOS>BOND
     1    18    19    1
     2    19     1    1
     3     1     2   ar
     4     2     3   ar
     5     3     4   ar
     6     4     7    1
     7     7     8    2
     8     7     9   am
     9     9    10    1
    10    10    11    1
    11    11    12    1
    12    12    13   ar
    13    13    14   ar
    14    14    15   ar
    15    15    16   ar
    16    16    17   ar
    17     4     5   ar
    18     5     6   ar
    19     6    20    1
    20    20    21    1
    21    21    22    1
    22    22    23   ar
    23    23    24   ar
    24    24    25   ar
    25    25    26   ar
    26    26    27    1
    27    26    28   ar
    28    28    29   ar
    29    29    30   ar
    30    30    31   ar
    31    31    32    1
    32    32    33    1
    33    33    34   ar
    34    33    35   ar
    35     6     1   ar
    36    31    22   ar
    37    17     9    1
    38    30    24   ar
    39    17    12   ar
@<TRIPOS>MOLECULE
*****
 35 39 0 0 0
SMALL
GASTEIGER

@<TRIPOS>ATOM
      1 C          60.2528   87.8392    9.4916 C.ar    1  UNL1        0.1355
      2 C          59.7998   89.1978    9.9379 C.ar    1  UNL1        0.0367
      3 C          60.8026   90.1982   10.4313 C.ar    1  UNL1        0.0076
      4 C          62.2585   89.8401   10.4783 C.ar    1  UNL1        0.0538
      5 C          62.7115   88.4815   10.0320 C.ar    1  UNL1        0.0041
      6 C          61.7087   87.4811    9.5386 C.ar    1  UNL1        0.0232
      7 C          63.2614   90.8405   10.9717 C.2     1  UNL1        0.2527
      8 O          63.6560   91.9978   10.1029 O.2     1  UNL1       -0.2696
      9 N          63.8697   90.6836   12.3338 N.am    1  UNL1       -0.2551
     10 C          63.5744   89.5835   13.3098 C.3     1  UNL1        0.1032
     11 C          64.4022   89.8192   14.5383 C.3     1  UNL1        0.0495
     12 C          65.2091   91.0650   14.3216 C.ar    1  UNL1       -0.0067
     13 C          66.2009   91.7820   15.1888 C.ar    1  UNL1       -0.0030
     14 C          66.8637   93.0331   14.6935 C.ar    1  UNL1       -0.0002
     15 C          66.5346   93.5673   13.3311 C.ar    1  UNL1        0.0013
     16 C          65.5427   92.8504   12.4639 C.ar    1  UNL1        0.0146
     17 C          64.8799   91.5992   12.9591 C.ar    1  UNL1        0.0502
     18 C          58.9154   86.7699    7.5376 C.3     1  UNL1        0.2525
     19 O          59.2499   86.8389    8.9982 O.3     1  UNL1       -0.4717
     20 C          62.1617   86.1226    9.0923 C.3     1  UNL1        0.0943
     21 S          63.3446   85.4736    9.7477 S.3     1  UNL1       -0.0724
     22 C          63.1418   84.3352   10.7031 C.ar    1  UNL1        0.1719
     23 N          63.0089   82.8874   10.3339 N.ar    1  UNL1       -0.2210
     24 C          62.8213   82.1021   11.5981 C.ar    1  UNL1        0.1014
     25 C          62.6372   80.6350   11.8502 C.ar    1  UNL1        0.0503
     26 C          62.4700   80.1302   13.2529 C.ar    1  UNL1        0.1417
     27 F          62.2859   78.6631   13.5051 F       1  UNL1       -0.2041
     28 C          62.4869   81.0926   14.4033 C.ar    1  UNL1        0.0312
     29 C          62.6710   82.5598   14.1510 C.ar    1  UNL1        0.0211
     30 C          62.8382   83.0645   12.7485 C.ar    1  UNL1        0.0797
     31 N          63.0363   84.4446   12.1953 N.ar    1  UNL1       -0.3011
     32 C          63.1150   85.7117   12.9942 C.3     1  UNL1        0.1496
     33 C          63.9711   85.7708   14.2245 C.2     1  UNL1        0.0733
     34 O          65.2476   84.9856   14.2883 O.co2   1  UNL1       -0.5472
     35 O          63.5508   86.6149   15.3909 O.co2   1  UNL1       -0.5472
@<TRIPOS>UNITY_ATOM_ATTR
34 1
charge -1
@<TRIPOS>BOND
     1    18    19    1
     2    19     1    1
     3     1     2   ar
     4     2     3   ar
     5     3     4   ar
     6     4     7    1
     7     7     8    2
     8     7     9   am
     9     9    10    1
    10    10    11    1
    11    11    12    1
    12    12    13   ar
    13    13    14   ar
    14    14    15   ar
    15    15    16   ar
    16    16    17   ar
    17     4     5   ar
    18     5     6   ar
    19     6    20    1
    20    20    21    1
    21    21    22    1
    22    22    23   ar
    23    23    24   ar
    24    24    25   ar
    25    25    26   ar
    26    26    27    1
    27    26    28   ar
    28    28    29   ar
    29    29    30   ar
    30    30    31   ar
    31    31    32    1
    32    32    33    1
    33    33    34   ar
    34    33    35   ar
    35     6     1   ar
    36    31    22   ar
    37    17     9    1
    38    30    24   ar
    39    17    12   ar
@<TRIPOS>MOLECULE
*****
 35 39 0 0 0
SMALL
GASTEIGER

@<TRIPOS>ATOM
      1 C          63.5178   85.6772   15.9775 C.ar    1  UNL1        0.1355
      2 C          63.0111   84.3477   15.5026 C.ar    1  UNL1        0.0367
      3 C          62.9623   84.0445   14.0344 C.ar    1  UNL1        0.0076
      4 C          63.4204   85.0709   13.0411 C.ar    1  UNL1        0.0538
      5 C          63.9271   86.4004   13.5159 C.ar    1  UNL1        0.0041
      6 C          63.9759   86.7036   14.9841 C.ar    1  UNL1        0.0232
      7 C          63.3717   84.7677   11.5727 C.2     1  UNL1        0.2527
      8 O          64.3730   83.8295   10.9671 O.2     1  UNL1       -0.2696
      9 N          62.3216   85.4028   10.7102 N.am    1  UNL1       -0.2551
     10 C          61.2594   86.3560   11.1720 C.3     1  UNL1        0.1032
     11 C          60.4307   86.7385    9.9816 C.3     1  UNL1        0.0495
     12 C          60.9807   86.0217    8.7842 C.ar    1  UNL1       -0.0067
     13 C          60.5684   86.0141    7.3420 C.ar    1  UNL1       -0.0030
     14 C          61.3247   85.1810    6.3502 C.ar    1  UNL1       -0.0002
     15 C          62.4934   84.3555    6.8005 C.ar    1  UNL1        0.0013
     16 C          62.9057   84.3631    8.2427 C.ar    1  UNL1        0.0146
     17 C          62.1494   85.1962    9.2345 C.ar    1  UNL1        0.0502
     18 C          62.4464   86.7402   18.0923 C.3     1  UNL1        0.2525
     19 O          63.5665   85.9804   17.4457 O.3     1  UNL1       -0.4717
     20 C          64.4827   88.0332   15.4590 C.3     1  UNL1        0.0943
     21 S          63.6785   89.2747   15.2102 S.3     1  UNL1       -0.0724
     22 C          64.1660   90.3001   14.2300 C.ar    1  UNL1        0.1719
     23 N          65.1012   91.4334   14.5315 N.ar    1  UNL1       -0.2210
     24 C          65.3170   92.2060   13.2640 C.ar    1  UNL1        0.1014
     25 C          66.1401   93.4220   12.9576 C.ar    1  UNL1        0.0503
     26 C          66.1613   93.9821   11.5662 C.ar    1  UNL1        0.1417
     27 F          66.9844   95.1981   11.2597 F       1  UNL1       -0.2041
     28 C          65.3595   93.3263   10.4813 C.ar    1  UNL1        0.0312
     29 C          64.5364   92.1103   10.7878 C.ar    1  UNL1        0.0211
     30 C          64.5152   91.5501   12.1792 C.ar    1  UNL1        0.0797
     31 N          63.8038   90.3722   12.7762 N.ar    1  UNL1       -0.3011
     32 C          62.8906   89.4316   12.0473 C.3     1  UNL1        0.1496
     33 C          61.4821   89.8437   11.7367 C.2     1  UNL1        0.0733
     34 O          61.1674   90.5156   10.4331 O.co2   1  UNL1       -0.5472
     35 O          60.3884   89.5839   12.7297 O.co2   1  UNL1       -0.5472
@<TRIPOS>UNITY_ATOM_ATTR
34 1
charge -1
@<TRIPOS>BOND
     1    18    19    1
     2    19     1    1
     3     1     2   ar
     4     2     3   ar
     5     3     4   ar
     6     4     7    1
     7     7     8    2
     8     7     9   am
     9     9    10    1
    10    10    11    1
    11    11    12    1
    12    12    13   ar
    13    13    14   ar
    14    14    15   ar
    15    15    16   ar
    16    16    17   ar
    17     4     5   ar
    18     5     6   ar
    19     6    20    1
    20    20    21    1
    21    21    22    1
    22    22    23   ar
    23    23    24   ar
    24    24    25   ar
    25    25    26   ar
    26    26    27    1
    27    26    28   ar
    28    28    29   ar
    29    29    30   ar
    30    30    31   ar
    31    31    32    1
    32    32    33    1
    33    33    34   ar
    34    33    35   ar
    35     6     1   ar
    36    31    22   ar
    37    17     9    1
    38    30    24   ar
    39    17    12   ar
@<TRIPOS>MOLECULE
*****
 35 39 0 0 0
SMALL
GASTEIGER

@<TRIPOS>ATOM
      1 C          64.9275   90.7583   14.0088 C.ar    1  UNL1        0.1355
      2 C          64.8676   91.6655   12.8158 C.ar    1  UNL1        0.0367
      3 C          63.8808   91.3974   11.7184 C.ar    1  UNL1        0.0076
      4 C          62.9537   90.2221   11.8141 C.ar    1  UNL1        0.0538
      5 C          63.0136   89.3149   13.0072 C.ar    1  UNL1        0.0041
      6 C          64.0004   89.5829   14.1045 C.ar    1  UNL1        0.0232
      7 C          61.9668   89.9540   10.7167 C.2     1  UNL1        0.2527
      8 O          61.2005   91.0883   10.1037 O.2     1  UNL1       -0.2696
      9 N          61.7463   88.5515   10.2325 N.am    1  UNL1       -0.2551
     10 C          62.4356   87.3226   10.7468 C.3     1  UNL1        0.1032
     11 C          61.9131   86.1433    9.9811 C.3     1  UNL1        0.0495
     12 C          60.9008   86.6435    8.9935 C.ar    1  UNL1       -0.0067
     13 C          60.0597   85.9359    7.9729 C.ar    1  UNL1       -0.0030
     14 C          59.1154   86.7167    7.1077 C.ar    1  UNL1       -0.0002
     15 C          59.0123   88.2051    7.2631 C.ar    1  UNL1        0.0013
     16 C          59.8535   88.9126    8.2837 C.ar    1  UNL1        0.0146
     17 C          60.7978   88.1318    9.1489 C.ar    1  UNL1        0.0502
     18 C          66.3137   92.4360   15.4279 C.3     1  UNL1        0.2525
     19 O          65.9144   91.0264   15.1061 O.3     1  UNL1       -0.4717
     20 C          64.0603   88.6757   15.2976 C.3     1  UNL1        0.0943
     21 S          64.8885   87.4260   15.2487 S.3     1  UNL1       -0.0724
     22 C          64.2933   86.1517   14.7275 C.ar    1  UNL1        0.1719
     23 N          64.3286   85.6795   13.3043 N.ar    1  UNL1       -0.2210
     24 C          63.6154   84.3618   13.2352 C.ar    1  UNL1        0.1014
     25 C          63.3380   83.4293   12.0935 C.ar    1  UNL1        0.0503
     26 C          62.5845   82.1544   12.3325 C.ar    1  UNL1        0.1417
     27 F          62.3071   81.2219   11.1907 F       1  UNL1       -0.2041
     28 C          62.1083   81.8121   13.7131 C.ar    1  UNL1        0.0312
     29 C          62.3858   82.7447   14.8548 C.ar    1  UNL1        0.0211
     30 C          63.1393   84.0195   14.6158 C.ar    1  UNL1        0.0797
     31 N          63.5582   85.1257   15.5381 N.ar    1  UNL1       -0.3011
     32 C          63.2893   85.1940   17.0123 C.3     1  UNL1        0.1496
     33 C          62.3317   86.2138   17.5535 C.2     1  UNL1        0.0733
     34 O          62.7295   87.0731   18.7168 O.co2   1  UNL1       -0.5472
     35 O          60.9762   86.3743   16.9315 O.co2   1  UNL1       -0.5472
@<TRIPOS>UNITY_ATOM_ATTR
34 1
charge -1
@<TRIPOS>BOND
     1    18    19    1
     2    19     1    1
     3     1     2   ar
     4     2     3   ar
     5     3     4   ar
     6     4     7    1
     7     7     8    2
     8     7     9   am
     9     9    10    1
    10    10    11    1
    11    11    12    1
    12    12    13   ar
    13    13    14   ar
    14    14    15   ar
    15    15    16   ar
    16    16    17   ar
    17     4     5   ar
    18     5     6   ar
    19     6    20    1
    20    20    21    1
    21    21    22    1
    22    22    23   ar
    23    23    24   ar
    24    24    25   ar
    25    25    26   ar
    26    26    27    1
    27    26    28   ar
    28    28    29   ar
    29    29    30   ar
    30    30    31   ar
    31    31    32    1
    32    32    33    1
    33    33    34   ar
    34    33    35   ar
    35     6     1   ar
    36    31    22   ar
    37    17     9    1
    38    30    24   ar
    39    17    12   ar
@<TRIPOS>MOLECULE
*****
 35 39 0 0 0
SMALL
GASTEIGER

@<TRIPOS>ATOM
      1 C          63.5732   89.7382   15.6298 C.ar    1  UNL1        0.1355
      2 C          63.2291   88.8473   16.7865 C.ar    1  UNL1        0.0367
      3 C          63.2542   87.3570   16.6187 C.ar    1  UNL1        0.0076
      4 C          63.6234   86.7575   15.2942 C.ar    1  UNL1        0.0538
      5 C          63.9674   87.6484   14.1375 C.ar    1  UNL1        0.0041
      6 C          63.9423   89.1388   14.3053 C.ar    1  UNL1        0.0232
      7 C          63.6485   85.2671   15.1264 C.2     1  UNL1        0.2527
      8 O          64.0739   84.3910   16.2671 O.2     1  UNL1       -0.2696
      9 N          63.2482   84.6529   13.8177 N.am    1  UNL1       -0.2551
     10 C          62.8024   85.3972   12.5941 C.3     1  UNL1        0.1032
     11 C          62.5021   84.3908   11.5232 C.3     1  UNL1        0.0495
     12 C          62.7622   83.0245   12.0849 C.ar    1  UNL1       -0.0067
     13 C          62.6388   81.6538   11.4883 C.ar    1  UNL1       -0.0030
     14 C          62.9764   80.4451   12.3099 C.ar    1  UNL1       -0.0002
     15 C          63.4376   80.6071   13.7280 C.ar    1  UNL1        0.0013
     16 C          63.5610   81.9777   14.3246 C.ar    1  UNL1        0.0146
     17 C          63.2233   83.1864   13.5031 C.ar    1  UNL1        0.0502
     18 C          64.7843   91.9547   16.2387 C.3     1  UNL1        0.2525
     19 O          63.5481   91.2286   15.7976 O.3     1  UNL1       -0.4717
     20 C          64.2864   90.0296   13.1486 C.3     1  UNL1        0.0943
     21 S          63.2012   90.5460   12.2509 S.3     1  UNL1       -0.0724
     22 C          62.5556   89.6317   11.2523 C.ar    1  UNL1        0.1719
     23 N          63.1209   88.3373   10.7475 N.ar    1  UNL1       -0.2210
     24 C          62.1459   87.7570    9.7664 C.ar    1  UNL1        0.1014
     25 C          62.1707   86.4973    8.9524 C.ar    1  UNL1        0.0503
     26 C          61.0275   86.1733    8.0368 C.ar    1  UNL1        0.1417
     27 F          61.0524   84.9137    7.2228 F       1  UNL1       -0.2041
     28 C          59.8596   87.1091    7.9352 C.ar    1  UNL1        0.0312
     29 C          59.8349   88.3688    8.7492 C.ar    1  UNL1        0.0211
     30 C          60.9780   88.6927    9.6648 C.ar    1  UNL1        0.0797
     31 N          61.2312   89.8514   10.5832 N.ar    1  UNL1       -0.3011
     32 C          60.3200   91.0238   10.7951 C.3     1  UNL1        0.1496
     33 C          59.0657   90.8627   11.6019 C.2     1  UNL1        0.0733
     34 O          58.8258   89.5972   12.3707 O.co2   1  UNL1       -0.5472
     35 O          58.0513   91.9670   11.6399 O.co2   1  UNL1       -0.5472
@<TRIPOS>UNITY_ATOM_ATTR
34 1
charge -1
@<TRIPOS>BOND
     1    18    19    1
     2    19     1    1
     3     1     2   ar
     4     2     3   ar
     5     3     4   ar
     6     4     7    1
     7     7     8    2
     8     7     9   am
     9     9    10    1
    10    10    11    1
    11    11    12    1
    12    12    13   ar
    13    13    14   ar
    14    14    15   ar
    15    15    16   ar
    16    16    17   ar
    17     4     5   ar
    18     5     6   ar
    19     6    20    1
    20    20    21    1
    21    21    22    1
    22    22    23   ar
    23    23    24   ar
    24    24    25   ar
    25    25    26   ar
    26    26    27    1
    27    26    28   ar
    28    28    29   ar
    29    29    30   ar
    30    30    31   ar
    31    31    32    1
    32    32    33    1
    33    33    34   ar
    34    33    35   ar
    35     6     1   ar
    36    31    22   ar
    37    17     9    1
    38    30    24   ar
    39    17    12   ar
@<TRIPOS>MOLECULE
*****
 35 39 0 0 0
SMALL
GASTEIGER

@<TRIPOS>ATOM
      1 C          63.7601   90.2913   15.8579 C.ar    1  UNL1        0.1355
      2 C          63.0351   89.3604   16.7842 C.ar    1  UNL1        0.0367
      3 C          63.0775   87.8803   16.5446 C.ar    1  UNL1        0.0076
      4 C          63.8450   87.3311   15.3787 C.ar    1  UNL1        0.0538
      5 C          64.5700   88.2619   14.4524 C.ar    1  UNL1        0.0041
      6 C          64.5276   89.7420   14.6920 C.ar    1  UNL1        0.0232
      7 C          63.8874   85.8509   15.1390 C.2     1  UNL1        0.2527
      8 O          64.3835   84.9309   16.2148 O.2     1  UNL1       -0.2696
      9 N          63.4338   85.2908   13.8235 N.am    1  UNL1       -0.2551
     10 C          62.9156   86.0827   12.6597 C.3     1  UNL1        0.1032
     11 C          62.5802   85.1218   11.5578 C.3     1  UNL1        0.0495
     12 C          62.8911   83.7360   12.0406 C.ar    1  UNL1       -0.0067
     13 C          62.7621   82.3926   11.3860 C.ar    1  UNL1       -0.0030
     14 C          63.1605   81.1537   12.1317 C.ar    1  UNL1       -0.0002
     15 C          63.6881   81.2581   13.5320 C.ar    1  UNL1        0.0013
     16 C          63.8172   82.6015   14.1866 C.ar    1  UNL1        0.0146
     17 C          63.4187   83.8405   13.4408 C.ar    1  UNL1        0.0502
     18 C          64.7152   92.4113   17.0171 C.3     1  UNL1        0.2525
     19 O          63.7177   91.7714   16.0976 O.3     1  UNL1       -0.4717
     20 C          65.2526   90.6729   13.7658 C.3     1  UNL1        0.0943
     21 S          64.5314   91.2846   12.6014 S.3     1  UNL1       -0.0724
     22 C          65.1135   92.4762   11.9007 C.ar    1  UNL1        0.1719
     23 N          65.0840   92.7314   10.4229 N.ar    1  UNL1       -0.2210
     24 C          65.7796   94.0348   10.1637 C.ar    1  UNL1        0.1014
     25 C          66.0540   94.7916    8.8980 C.ar    1  UNL1        0.0503
     26 C          66.7880   96.0988    8.9499 C.ar    1  UNL1        0.1417
     27 F          67.0624   96.8557    7.6842 F       1  UNL1       -0.2041
     28 C          67.2475   96.6492   10.2675 C.ar    1  UNL1        0.0312
     29 C          66.9731   95.8922   11.5331 C.ar    1  UNL1        0.0211
     30 C          66.2391   94.5851   11.4812 C.ar    1  UNL1        0.0797
     31 N          65.8275   93.6218   12.5548 N.ar    1  UNL1       -0.3011
     32 C          66.0846   93.7769   14.0244 C.3     1  UNL1        0.1496
     33 C          67.4047   93.3614   14.6028 C.2     1  UNL1        0.0733
     34 O          67.7872   93.7954   15.9867 O.co2   1  UNL1       -0.5472
     35 O          68.3424   92.5118   13.7973 O.co2   1  UNL1       -0.5472
@<TRIPOS>UNITY_ATOM_ATTR
34 1
charge -1
@<TRIPOS>BOND
     1    18    19    1
     2    19     1    1
     3     1     2   ar
     4     2     3   ar
     5     3     4   ar
     6     4     7    1
     7     7     8    2
     8     7     9   am
     9     9    10    1
    10    10    11    1
    11    11    12    1
    12    12    13   ar
    13    13    14   ar
    14    14    15   ar
    15    15    16   ar
    16    16    17   ar
    17     4     5   ar
    18     5     6   ar
    19     6    20    1
    20    20    21    1
    21    21    22    1
    22    22    23   ar
    23    23    24   ar
    24    24    25   ar
    25    25    26   ar
    26    26    27    1
    27    26    28   ar
    28    28    29   ar
    29    29    30   ar
    30    30    31   ar
    31    31    32    1
    32    32    33    1
    33    33    34   ar
    34    33    35   ar
    35     6     1   ar
    36    31    22   ar
    37    17     9    1
    38    30    24   ar
    39    17    12   ar
@<TRIPOS>MOLECULE
*****
 35 39 0 0 0
SMALL
GASTEIGER

@<TRIPOS>ATOM
      1 C          63.3987   88.0854   16.1798 C.ar    1  UNL1        0.1355
      2 C          63.1871   89.4039   16.8631 C.ar    1  UNL1        0.0367
      3 C          63.7629   90.6562   16.2714 C.ar    1  UNL1        0.0076
      4 C          64.5503   90.5900   14.9964 C.ar    1  UNL1        0.0538
      5 C          64.7620   89.2716   14.3132 C.ar    1  UNL1        0.0041
      6 C          64.1862   88.0192   14.9048 C.ar    1  UNL1        0.0232
      7 C          65.1262   91.8424   14.4047 C.2     1  UNL1        0.2527
      8 O          65.8179   92.8392   15.2866 O.2     1  UNL1       -0.2696
      9 N          65.0102   92.0978   12.9312 N.am    1  UNL1       -0.2551
     10 C          64.3500   91.1974   11.9295 C.3     1  UNL1        0.1032
     11 C          64.4659   91.8416   10.5799 C.3     1  UNL1        0.0495
     12 C          65.1978   93.1402   10.7474 C.ar    1  UNL1       -0.0067
     13 C          65.6013   94.1989    9.7645 C.ar    1  UNL1       -0.0030
     14 C          66.3412   95.4160   10.2347 C.ar    1  UNL1       -0.0002
     15 C          66.6777   95.5743   11.6879 C.ar    1  UNL1        0.0013
     16 C          66.2741   94.5156   12.6708 C.ar    1  UNL1        0.0146
     17 C          65.5342   93.2986   12.2006 C.ar    1  UNL1        0.0502
     18 C          62.6358   86.7219   18.2557 C.3     1  UNL1        0.2525
     19 O          62.8229   86.8331   16.7715 O.3     1  UNL1       -0.4717
     20 C          64.3978   86.7008   14.2216 C.3     1  UNL1        0.0943
     21 S          63.3788   86.1890   13.2470 S.3     1  UNL1       -0.0724
     22 C          63.1822   84.7120   13.0738 C.ar    1  UNL1        0.1719
     23 N          62.8380   83.7352   14.1587 N.ar    1  UNL1       -0.2210
     24 C          62.7384   82.3721   13.5406 C.ar    1  UNL1        0.1014
     25 C          62.4269   81.0258   14.1241 C.ar    1  UNL1        0.0503
     26 C          62.3980   79.8139   13.2405 C.ar    1  UNL1        0.1417
     27 F          62.0864   78.4676   13.8240 F       1  UNL1       -0.2041
     28 C          62.6807   79.9484   11.7736 C.ar    1  UNL1        0.0312
     29 C          62.9922   81.2947   11.1902 C.ar    1  UNL1        0.0211
     30 C          63.0211   82.5066   12.0737 C.ar    1  UNL1        0.0797
     31 N          63.2954   83.9527   11.7851 N.ar    1  UNL1       -0.3011
     32 C          63.6250   84.5370   10.4435 C.3     1  UNL1        0.1496
     33 C          62.5869   85.3121    9.6875 C.2     1  UNL1        0.0733
     34 O          61.3236   85.7407   10.3734 O.co2   1  UNL1       -0.5472
     35 O          62.8120   85.6586    8.2455 O.co2   1  UNL1       -0.5472
@<TRIPOS>UNITY_ATOM_ATTR
34 1
charge -1
@<TRIPOS>BOND
     1    18    19    1
     2    19     1    1
     3     1     2   ar
     4     2     3   ar
     5     3     4   ar
     6     4     7    1
     7     7     8    2
     8     7     9   am
     9     9    10    1
    10    10    11    1
    11    11    12    1
    12    12    13   ar
    13    13    14   ar
    14    14    15   ar
    15    15    16   ar
    16    16    17   ar
    17     4     5   ar
    18     5     6   ar
    19     6    20    1
    20    20    21    1
    21    21    22    1
    22    22    23   ar
    23    23    24   ar
    24    24    25   ar
    25    25    26   ar
    26    26    27    1
    27    26    28   ar
    28    28    29   ar
    29    29    30   ar
    30    30    31   ar
    31    31    32    1
    32    32    33    1
    33    33    34   ar
    34    33    35   ar
    35     6     1   ar
    36    31    22   ar
    37    17     9    1
    38    30    24   ar
    39    17    12   ar
