@<TRIPOS>MOLECULE
*****
 22 24 0 0 0
SMALL
GASTEIGER

@<TRIPOS>ATOM
      1 C          65.7545   92.7420   11.7705 C.ar    1  UNL1        0.1378
      2 N          66.4227   92.6162   13.1075 N.ar    1  UNL1       -0.1770
      3 C          65.9113   91.6258   14.1112 C.ar    1  UNL1        0.3552
      4 O          66.5796   91.4999   15.4483 O.2     1  UNL1       -0.2440
      5 N          64.7317   90.7612   13.7780 N.ar    1  UNL1       -0.2573
      6 C          64.0635   90.8871   12.4409 C.ar    1  UNL1        0.0718
      7 C          62.8839   90.0225   12.1077 C.ar    1  UNL1        0.0291
      8 C          62.2157   90.1484   10.7707 C.ar    1  UNL1        0.0591
      9 CL         61.0360   89.2839   10.4374 Cl      1  UNL1       -0.0822
     10 C          62.7271   91.1388    9.7669 C.ar    1  UNL1        0.0116
     11 C          63.9067   92.0034   10.1002 C.ar    1  UNL1        0.0051
     12 C          64.5749   91.8775   11.4372 C.ar    1  UNL1        0.0480
     13 C          64.2203   89.7708   14.7818 C.ar    1  UNL1        0.0874
     14 C          63.5203   90.2501   16.0188 C.ar    1  UNL1        0.0208
     15 C          63.0089   89.2596   17.0226 C.ar    1  UNL1        0.0222
     16 C          63.1975   87.7900   16.7893 C.ar    1  UNL1        0.0990
     17 N          63.8976   87.3106   15.5523 N.ar    1  UNL1       -0.2408
     18 C          64.4090   88.3011   14.5485 C.ar    1  UNL1        0.1164
     19 N          66.2659   93.7325   10.7667 N.pl3   1  UNL1       -0.2913
     20 C          65.7427   95.1382   10.7664 C.3     1  UNL1        0.1136
     21 C          68.0724   92.0466    9.9638 C.3     1  UNL1        0.0232
     22 C          67.3006   93.3171    9.7632 C.3     1  UNL1        0.0923
@<TRIPOS>BOND
     1    21    22    1
     2    22    19    1
     3    19    20    1
     4    19     1    1
     5     1     2   ar
     6     2     3   ar
     7     3     4    2
     8     3     5   ar
     9     5    13    1
    10    13    14   ar
    11    14    15   ar
    12    15    16   ar
    13    16    17   ar
    14    17    18   ar
    15     5     6   ar
    16     6     7   ar
    17     7     8   ar
    18     8     9    1
    19     8    10   ar
    20    10    11   ar
    21    11    12   ar
    22    12     1   ar
    23    18    13   ar
    24    12     6   ar
@<TRIPOS>MOLECULE
*****
 22 24 0 0 0
SMALL
GASTEIGER

@<TRIPOS>ATOM
      1 C          63.8871   89.8547   13.4596 C.ar    1  UNL1        0.1378
      2 N          63.2478   90.5998   12.3255 N.ar    1  UNL1       -0.1770
      3 C          62.5338   89.8477   11.2418 C.ar    1  UNL1        0.3552
      4 O          61.8944   90.5929   10.1078 O.2     1  UNL1       -0.2440
      5 N          62.4591   88.3504   11.2922 N.ar    1  UNL1       -0.2573
      6 C          63.0984   87.6052   12.4262 C.ar    1  UNL1        0.0718
      7 C          63.0237   86.1080   12.4766 C.ar    1  UNL1        0.0291
      8 C          63.6630   85.3629   13.6106 C.ar    1  UNL1        0.0591
      9 CL         63.5883   83.8655   13.6609 Cl      1  UNL1       -0.0822
     10 C          64.3770   86.1150   14.6943 C.ar    1  UNL1        0.0116
     11 C          64.4517   87.6123   14.6439 C.ar    1  UNL1        0.0051
     12 C          63.8124   88.3574   13.5099 C.ar    1  UNL1        0.0480
     13 C          61.7450   87.5983   10.2085 C.ar    1  UNL1        0.0874
     14 C          62.5166   86.7087    9.2794 C.ar    1  UNL1        0.0208
     15 C          61.8026   85.9565    8.1957 C.ar    1  UNL1        0.0222
     16 C          60.3169   86.0939    8.0411 C.ar    1  UNL1        0.0990
     17 N          59.5452   86.9836    8.9702 N.ar    1  UNL1       -0.2408
     18 C          60.2593   87.7357   10.0539 C.ar    1  UNL1        0.1164
     19 N          64.6012   90.6069   14.5432 N.pl3   1  UNL1       -0.2913
     20 C          63.8955   90.9193   15.8295 C.3     1  UNL1        0.1136
     21 C          66.3244   92.2148   13.4500 C.3     1  UNL1        0.0232
     22 C          66.0209   91.0467   14.3407 C.3     1  UNL1        0.0923
@<TRIPOS>BOND
     1    21    22    1
     2    22    19    1
     3    19    20    1
     4    19     1    1
     5     1     2   ar
     6     2     3   ar
     7     3     4    2
     8     3     5   ar
     9     5    13    1
    10    13    14   ar
    11    14    15   ar
    12    15    16   ar
    13    16    17   ar
    14    17    18   ar
    15     5     6   ar
    16     6     7   ar
    17     7     8   ar
    18     8     9    1
    19     8    10   ar
    20    10    11   ar
    21    11    12   ar
    22    12     1   ar
    23    18    13   ar
    24    12     6   ar
@<TRIPOS>MOLECULE
*****
 22 24 0 0 0
SMALL
GASTEIGER

@<TRIPOS>ATOM
      1 C          63.7359   88.7064   13.4128 C.ar    1  UNL1        0.1378
      2 N          64.2982   87.8617   14.5175 N.ar    1  UNL1       -0.1770
      3 C          64.1818   86.3677   14.4528 C.ar    1  UNL1        0.3552
      4 O          64.7442   85.5230   15.5576 O.2     1  UNL1       -0.2440
      5 N          63.5032   85.7182   13.2833 N.ar    1  UNL1       -0.2573
      6 C          62.9409   86.5629   12.1786 C.ar    1  UNL1        0.0718
      7 C          62.2623   85.9134   11.0091 C.ar    1  UNL1        0.0291
      8 C          61.7001   86.7581    9.9044 C.ar    1  UNL1        0.0591
      9 CL         61.0214   86.1087    8.7349 Cl      1  UNL1       -0.0822
     10 C          61.8164   88.2522    9.9692 C.ar    1  UNL1        0.0116
     11 C          62.4950   88.9016   11.1386 C.ar    1  UNL1        0.0051
     12 C          63.0573   88.0570   12.2433 C.ar    1  UNL1        0.0480
     13 C          63.3869   84.2242   13.2186 C.ar    1  UNL1        0.0874
     14 C          62.3328   83.5186   14.0192 C.ar    1  UNL1        0.0208
     15 C          62.2165   82.0245   13.9545 C.ar    1  UNL1        0.0222
     16 C          63.1542   81.2360   13.0891 C.ar    1  UNL1        0.0990
     17 N          64.2083   81.9416   12.2883 N.ar    1  UNL1       -0.2408
     18 C          64.3246   83.4357   12.3531 C.ar    1  UNL1        0.1164
     19 N          63.8523   90.2005   13.4776 N.pl3   1  UNL1       -0.2913
     20 C          63.8465   90.8963   14.8064 C.3     1  UNL1        0.1136
     21 C          65.0016   92.0870   12.1100 C.3     1  UNL1        0.0232
     22 C          63.9745   90.9987   12.2135 C.3     1  UNL1        0.0923
@<TRIPOS>BOND
     1    21    22    1
     2    22    19    1
     3    19    20    1
     4    19     1    1
     5     1     2   ar
     6     2     3   ar
     7     3     4    2
     8     3     5   ar
     9     5    13    1
    10    13    14   ar
    11    14    15   ar
    12    15    16   ar
    13    16    17   ar
    14    17    18   ar
    15     5     6   ar
    16     6     7   ar
    17     7     8   ar
    18     8     9    1
    19     8    10   ar
    20    10    11   ar
    21    11    12   ar
    22    12     1   ar
    23    18    13   ar
    24    12     6   ar
@<TRIPOS>MOLECULE
*****
 22 24 0 0 0
SMALL
GASTEIGER

@<TRIPOS>ATOM
      1 C          64.5422   90.6635   13.7481 C.ar    1  UNL1        0.1378
      2 N          64.0173   90.8183   12.3515 N.ar    1  UNL1       -0.1770
      3 C          64.5605   91.8965   11.4614 C.ar    1  UNL1        0.3552
      4 O          64.0355   92.0513   10.0647 O.2     1  UNL1       -0.2440
      5 N          65.6286   92.8199   11.9678 N.ar    1  UNL1       -0.2573
      6 C          66.1536   92.6650   13.3644 C.ar    1  UNL1        0.0718
      7 C          67.2217   93.5884   13.8708 C.ar    1  UNL1        0.0291
      8 C          67.7466   93.4335   15.2674 C.ar    1  UNL1        0.0591
      9 CL         68.8148   94.3569   15.7738 Cl      1  UNL1       -0.0822
     10 C          67.2034   92.3553   16.1575 C.ar    1  UNL1        0.0116
     11 C          66.1353   91.4320   15.6511 C.ar    1  UNL1        0.0051
     12 C          65.6104   91.5868   14.2546 C.ar    1  UNL1        0.0480
     13 C          66.1718   93.8981   11.0776 C.ar    1  UNL1        0.0874
     14 C          67.1759   93.5592   10.0161 C.ar    1  UNL1        0.0208
     15 C          67.7191   94.6374    9.1259 C.ar    1  UNL1        0.0222
     16 C          67.2583   96.0545    9.2973 C.ar    1  UNL1        0.0990
     17 N          66.2541   96.3934   10.3589 N.ar    1  UNL1       -0.2408
     18 C          65.7109   95.3152   11.2490 C.ar    1  UNL1        0.1164
     19 N          63.9989   89.5853   14.6383 N.pl3   1  UNL1       -0.2913
     20 C          64.2834   88.1449   14.3311 C.3     1  UNL1        0.1136
     21 C          63.0150   88.9702   16.9629 C.3     1  UNL1        0.0232
     22 C          63.1712   89.9475   15.8357 C.3     1  UNL1        0.0923
@<TRIPOS>BOND
     1    21    22    1
     2    22    19    1
     3    19    20    1
     4    19     1    1
     5     1     2   ar
     6     2     3   ar
     7     3     4    2
     8     3     5   ar
     9     5    13    1
    10    13    14   ar
    11    14    15   ar
    12    15    16   ar
    13    16    17   ar
    14    17    18   ar
    15     5     6   ar
    16     6     7   ar
    17     7     8   ar
    18     8     9    1
    19     8    10   ar
    20    10    11   ar
    21    11    12   ar
    22    12     1   ar
    23    18    13   ar
    24    12     6   ar
@<TRIPOS>MOLECULE
*****
 22 24 0 0 0
SMALL
GASTEIGER

@<TRIPOS>ATOM
      1 C          63.5276   88.4650   13.0977 C.ar    1  UNL1        0.1378
      2 N          64.1443   87.5233   14.0891 N.ar    1  UNL1       -0.1770
      3 C          64.0187   86.0413   13.8944 C.ar    1  UNL1        0.3552
      4 O          64.6355   85.0997   14.8859 O.2     1  UNL1       -0.2440
      5 N          63.2764   85.5010   12.7083 N.ar    1  UNL1       -0.2573
      6 C          62.6596   86.4426   11.7168 C.ar    1  UNL1        0.0718
      7 C          61.9173   85.9023   10.5307 C.ar    1  UNL1        0.0291
      8 C          61.3006   86.8439    9.5393 C.ar    1  UNL1        0.0591
      9 CL         60.5583   86.3036    8.3530 Cl      1  UNL1       -0.0822
     10 C          61.4262   88.3259    9.7340 C.ar    1  UNL1        0.0116
     11 C          62.1685   88.8663   10.9201 C.ar    1  UNL1        0.0051
     12 C          62.7852   87.9246   11.9115 C.ar    1  UNL1        0.0480
     13 C          63.1508   84.0190   12.5135 C.ar    1  UNL1        0.0874
     14 C          63.8084   83.3586   11.3382 C.ar    1  UNL1        0.0208
     15 C          63.6828   81.8766   11.1435 C.ar    1  UNL1        0.0222
     16 C          62.8996   81.0550   12.1241 C.ar    1  UNL1        0.0990
     17 N          62.2420   81.7154   13.2994 N.ar    1  UNL1       -0.2408
     18 C          62.3676   83.1974   13.4942 C.ar    1  UNL1        0.1164
     19 N          63.6532   89.9470   13.2924 N.pl3   1  UNL1       -0.2913
     20 C          63.5383   90.5351   14.6675 C.3     1  UNL1        0.1136
     21 C          64.8852   91.9621   12.2101 C.3     1  UNL1        0.0232
     22 C          63.8937   90.8408   12.1120 C.3     1  UNL1        0.0923
@<TRIPOS>BOND
     1    21    22    1
     2    22    19    1
     3    19    20    1
     4    19     1    1
     5     1     2   ar
     6     2     3   ar
     7     3     4    2
     8     3     5   ar
     9     5    13    1
    10    13    14   ar
    11    14    15   ar
    12    15    16   ar
    13    16    17   ar
    14    17    18   ar
    15     5     6   ar
    16     6     7   ar
    17     7     8   ar
    18     8     9    1
    19     8    10   ar
    20    10    11   ar
    21    11    12   ar
    22    12     1   ar
    23    18    13   ar
    24    12     6   ar
@<TRIPOS>MOLECULE
*****
 22 24 0 0 0
SMALL
GASTEIGER

@<TRIPOS>ATOM
      1 C          62.2356   87.6502   10.4577 C.ar    1  UNL1        0.1378
      2 N          62.2766   89.1366   10.2607 N.ar    1  UNL1       -0.1770
      3 C          62.8769   90.0169   11.3166 C.ar    1  UNL1        0.3552
      4 O          62.9179   91.5034   11.1196 O.2     1  UNL1       -0.2440
      5 N          63.4361   89.4107   12.5695 N.ar    1  UNL1       -0.2573
      6 C          63.3951   87.9242   12.7666 C.ar    1  UNL1        0.0718
      7 C          63.9543   87.3180   14.0195 C.ar    1  UNL1        0.0291
      8 C          63.9132   85.8316   14.2165 C.ar    1  UNL1        0.0591
      9 CL         64.4725   85.2254   15.4694 Cl      1  UNL1       -0.0822
     10 C          63.3130   84.9514   13.1606 C.ar    1  UNL1        0.0116
     11 C          62.7538   85.5576   11.9077 C.ar    1  UNL1        0.0051
     12 C          62.7948   87.0440   11.7107 C.ar    1  UNL1        0.0480
     13 C          64.0363   90.2909   13.6254 C.ar    1  UNL1        0.0874
     14 C          65.3615   90.9518   13.3866 C.ar    1  UNL1        0.0208
     15 C          65.9617   91.8321   14.4425 C.ar    1  UNL1        0.0222
     16 C          65.2368   92.0514   15.7372 C.ar    1  UNL1        0.0990
     17 N          63.9115   91.3905   15.9761 N.ar    1  UNL1       -0.2408
     18 C          63.3113   90.5102   14.9202 C.ar    1  UNL1        0.1164
     19 N          61.6354   86.7700    9.4018 N.pl3   1  UNL1       -0.2913
     20 C          62.5097   85.8384    8.6160 C.3     1  UNL1        0.1136
     21 C          59.6274   86.3942    7.7965 C.3     1  UNL1        0.0232
     22 C          60.1607   86.8214    9.1318 C.3     1  UNL1        0.0923
@<TRIPOS>BOND
     1    21    22    1
     2    22    19    1
     3    19    20    1
     4    19     1    1
     5     1     2   ar
     6     2     3   ar
     7     3     4    2
     8     3     5   ar
     9     5    13    1
    10    13    14   ar
    11    14    15   ar
    12    15    16   ar
    13    16    17   ar
    14    17    18   ar
    15     5     6   ar
    16     6     7   ar
    17     7     8   ar
    18     8     9    1
    19     8    10   ar
    20    10    11   ar
    21    11    12   ar
    22    12     1   ar
    23    18    13   ar
    24    12     6   ar
@<TRIPOS>MOLECULE
*****
 22 24 0 0 0
SMALL
GASTEIGER

@<TRIPOS>ATOM
      1 C          64.6182   90.8988   14.5564 C.ar    1  UNL1        0.1378
      2 N          65.8997   91.6514   14.7598 N.ar    1  UNL1       -0.1770
      3 C          66.5476   92.3552   13.6044 C.ar    1  UNL1        0.3552
      4 O          67.8291   93.1078   13.8078 O.2     1  UNL1       -0.2440
      5 N          65.9140   92.3064   12.2457 N.ar    1  UNL1       -0.2573
      6 C          64.6325   91.5538   12.0423 C.ar    1  UNL1        0.0718
      7 C          63.9989   91.5050   10.6835 C.ar    1  UNL1        0.0291
      8 C          62.7174   90.7524   10.4802 C.ar    1  UNL1        0.0591
      9 CL         62.0838   90.7036    9.1214 Cl      1  UNL1       -0.0822
     10 C          62.0695   90.0486   11.6356 C.ar    1  UNL1        0.0116
     11 C          62.7031   90.0974   12.9943 C.ar    1  UNL1        0.0051
     12 C          63.9845   90.8500   13.1976 C.ar    1  UNL1        0.0480
     13 C          66.5619   93.0102   11.0903 C.ar    1  UNL1        0.0874
     14 C          67.5586   92.2863   10.2345 C.ar    1  UNL1        0.0208
     15 C          68.2065   92.9901    9.0792 C.ar    1  UNL1        0.0222
     16 C          67.8577   94.4178    8.7796 C.ar    1  UNL1        0.0990
     17 N          66.8609   95.1419    9.6354 N.ar    1  UNL1       -0.2408
     18 C          66.2130   94.4380   10.7907 C.ar    1  UNL1        0.1164
     19 N          63.9703   90.1950   15.7118 N.pl3   1  UNL1       -0.2913
     20 C          63.4779   90.9829   16.8893 C.3     1  UNL1        0.1136
     21 C          63.0909   88.0079   16.8043 C.3     1  UNL1        0.0232
     22 C          63.8148   88.7032   15.6895 C.3     1  UNL1        0.0923
@<TRIPOS>BOND
     1    21    22    1
     2    22    19    1
     3    19    20    1
     4    19     1    1
     5     1     2   ar
     6     2     3   ar
     7     3     4    2
     8     3     5   ar
     9     5    13    1
    10    13    14   ar
    11    14    15   ar
    12    15    16   ar
    13    16    17   ar
    14    17    18   ar
    15     5     6   ar
    16     6     7   ar
    17     7     8   ar
    18     8     9    1
    19     8    10   ar
    20    10    11   ar
    21    11    12   ar
    22    12     1   ar
    23    18    13   ar
    24    12     6   ar
@<TRIPOS>MOLECULE
*****
 22 24 0 0 0
SMALL
GASTEIGER

@<TRIPOS>ATOM
      1 C          63.8152   85.8744   13.8402 C.ar    1  UNL1        0.1378
      2 N          63.4571   87.1458   13.1294 N.ar    1  UNL1       -0.1770
      3 C          62.8601   87.0937   11.7543 C.ar    1  UNL1        0.3552
      4 O          62.5021   88.3651   11.0434 O.2     1  UNL1       -0.2440
      5 N          62.6212   85.7702   11.0900 N.ar    1  UNL1       -0.2573
      6 C          62.9793   84.4987   11.8009 C.ar    1  UNL1        0.0718
      7 C          62.7404   83.1752   11.1366 C.ar    1  UNL1        0.0291
      8 C          63.0985   81.9039   11.8475 C.ar    1  UNL1        0.0591
      9 CL         62.8596   80.5803   11.1832 Cl      1  UNL1       -0.0822
     10 C          63.6954   81.9560   13.2226 C.ar    1  UNL1        0.0116
     11 C          63.9343   83.2795   13.8868 C.ar    1  UNL1        0.0051
     12 C          63.5763   84.5508   13.1760 C.ar    1  UNL1        0.0480
     13 C          62.0243   85.7181    9.7149 C.ar    1  UNL1        0.0874
     14 C          62.8314   85.1894    8.5664 C.ar    1  UNL1        0.0208
     15 C          62.2344   85.1373    7.1913 C.ar    1  UNL1        0.0222
     16 C          60.8303   85.6139    6.9647 C.ar    1  UNL1        0.0990
     17 N          60.0231   86.1426    8.1132 N.ar    1  UNL1       -0.2408
     18 C          60.6201   86.1947    9.4883 C.ar    1  UNL1        0.1164
     19 N          64.4121   85.9265   15.2153 N.pl3   1  UNL1       -0.2913
     20 C          65.9022   85.9542   15.3855 C.3     1  UNL1        0.1136
     21 C          63.0555   87.2616   16.9837 C.3     1  UNL1        0.0232
     22 C          63.5190   85.9510   16.4202 C.3     1  UNL1        0.0923
@<TRIPOS>BOND
     1    21    22    1
     2    22    19    1
     3    19    20    1
     4    19     1    1
     5     1     2   ar
     6     2     3   ar
     7     3     4    2
     8     3     5   ar
     9     5    13    1
    10    13    14   ar
    11    14    15   ar
    12    15    16   ar
    13    16    17   ar
    14    17    18   ar
    15     5     6   ar
    16     6     7   ar
    17     7     8   ar
    18     8     9    1
    19     8    10   ar
    20    10    11   ar
    21    11    12   ar
    22    12     1   ar
    23    18    13   ar
    24    12     6   ar
@<TRIPOS>MOLECULE
*****
 22 24 0 0 0
SMALL
GASTEIGER

@<TRIPOS>ATOM
      1 C          63.4686   84.6818   12.4654 C.ar    1  UNL1        0.1378
      2 N          64.1083   84.7612   13.8198 N.ar    1  UNL1       -0.1770
      3 C          64.2491   86.0874   14.5062 C.ar    1  UNL1        0.3552
      4 O          64.8889   86.1667   15.8607 O.2     1  UNL1       -0.2440
      5 N          63.7503   87.3344   13.8382 N.ar    1  UNL1       -0.2573
      6 C          63.1106   87.2551   12.4837 C.ar    1  UNL1        0.0718
      7 C          62.6118   88.5020   11.8157 C.ar    1  UNL1        0.0291
      8 C          61.9721   88.4227   10.4613 C.ar    1  UNL1        0.0591
      9 CL         61.4732   89.6697    9.7933 Cl      1  UNL1       -0.0822
     10 C          61.8312   87.0964    9.7749 C.ar    1  UNL1        0.0116
     11 C          62.3300   85.8495   10.4429 C.ar    1  UNL1        0.0051
     12 C          62.9697   85.9288   11.7973 C.ar    1  UNL1        0.0480
     13 C          63.8912   88.6606   14.5246 C.ar    1  UNL1        0.0874
     14 C          64.7451   89.7332   13.9160 C.ar    1  UNL1        0.0208
     15 C          64.8860   91.0594   14.6024 C.ar    1  UNL1        0.0222
     16 C          64.1729   91.3132   15.8974 C.ar    1  UNL1        0.0990
     17 N          63.3189   90.2406   16.5061 N.ar    1  UNL1       -0.2408
     18 C          63.1781   88.9144   15.8197 C.ar    1  UNL1        0.1164
     19 N          63.3277   83.3556   11.7790 N.pl3   1  UNL1       -0.2913
     20 C          64.2170   83.0122   10.6209 C.3     1  UNL1        0.1136
     21 C          62.7251   81.0464   12.8060 C.3     1  UNL1        0.0232
     22 C          62.2975   82.3726   12.2507 C.3     1  UNL1        0.0923
@<TRIPOS>BOND
     1    21    22    1
     2    22    19    1
     3    19    20    1
     4    19     1    1
     5     1     2   ar
     6     2     3   ar
     7     3     4    2
     8     3     5   ar
     9     5    13    1
    10    13    14   ar
    11    14    15   ar
    12    15    16   ar
    13    16    17   ar
    14    17    18   ar
    15     5     6   ar
    16     6     7   ar
    17     7     8   ar
    18     8     9    1
    19     8    10   ar
    20    10    11   ar
    21    11    12   ar
    22    12     1   ar
    23    18    13   ar
    24    12     6   ar
