@<TRIPOS>MOLECULE
*****
 44 48 0 0 0
SMALL
GASTEIGER

@<TRIPOS>ATOM
      1 C          64.5142   86.7020   13.8316 C.3     1  UNL1        0.1217
      2 C          63.9697   87.2182   15.1304 C.ar    1  UNL1       -0.0023
      3 C          63.8142   86.2916   16.2997 C.ar    1  UNL1       -0.0026
      4 C          63.2696   86.8080   17.5985 C.ar    1  UNL1       -0.0003
      5 C          62.8805   88.2508   17.7280 C.ar    1  UNL1       -0.0000
      6 C          63.0359   89.1773   16.5587 C.ar    1  UNL1       -0.0003
      7 C          63.5805   88.6611   15.2599 C.ar    1  UNL1       -0.0024
      8 C          63.7359   89.5877   14.0906 C.ar    1  UNL1       -0.0003
      9 C          64.6664   90.7607   14.1816 C.ar    1  UNL1       -0.0003
     10 C          64.8218   91.6872   13.0123 C.ar    1  UNL1       -0.0029
     11 C          64.0468   91.4408   11.7519 C.ar    1  UNL1       -0.0061
     12 C          63.1163   90.2678   11.6608 C.ar    1  UNL1       -0.0029
     13 C          62.9609   89.3412   12.8301 C.ar    1  UNL1       -0.0003
     14 C          64.2023   92.3674   10.5826 C.3     1  UNL1        0.0992
     15 N          65.4858   93.1184   10.3862 N.3     1  UNL1       -0.2666
     16 C          65.5322   94.5988   10.6232 C.3     1  UNL1        0.0882
     17 C          66.8158   95.3499   10.4268 C.3     1  UNL1        0.0702
     18 C          66.8623   96.8303   10.6638 C.3     1  UNL1        0.0186
     19 N          68.0528   94.6205    9.9935 N.3     1  UNL1       -0.2974
     20 C          68.0063   93.1400    9.7565 C.3     1  UNL1        0.0702
     21 C          69.2433   92.4106    9.3232 C.3     1  UNL1        0.0186
     22 C          66.7228   92.3890    9.9529 C.3     1  UNL1        0.0882
     23 H          68.7570   94.7814   10.7136 H       1  UNL1        0.1232
     24 N          64.0504   85.3796   13.2966 N.am    1  UNL1       -0.2598
     25 C          63.1196   85.3308   12.1214 C.2     1  UNL1        0.3042
     26 O          62.6558   84.0083   11.5864 O.2     1  UNL1       -0.2526
     27 N          62.6526   86.6043   11.4811 N.am    1  UNL1       -0.2904
     28 H          62.9570   87.4722   11.8323 H       1  UNL1        0.1509
     29 C          61.7217   86.5555   10.3059 C.3     1  UNL1        0.0730
     30 C          62.1218   85.8183    9.0624 C.3     1  UNL1        0.0196
     31 C          61.1910   85.7694    7.8872 C.3     1  UNL1        0.0017
     32 C          59.8601   86.4578    7.9555 C.3     1  UNL1        0.0001
     33 C          59.4600   87.1950    9.1990 C.3     1  UNL1        0.0017
     34 C          60.3908   87.2438   10.3742 C.3     1  UNL1        0.0196
     35 C          64.5175   84.1060   13.9369 C.3     1  UNL1        0.0999
     36 C          63.6033   83.3481   14.8532 C.3     1  UNL1        0.0480
     37 C          60.7111   80.7491   14.0590 C.ar    1  UNL1        0.1384
     38 C          61.4866   79.6620   13.3758 C.ar    1  UNL1        0.0369
     39 C          62.9677   79.8036   13.1851 C.ar    1  UNL1        0.0028
     40 C          63.6733   81.0322   13.6775 C.ar    1  UNL1       -0.0040
     41 C          62.8977   82.1193   14.3607 C.ar    1  UNL1       -0.0175
     42 C          61.4167   81.9777   14.5514 C.ar    1  UNL1        0.0327
     43 C          58.6550   79.3022   14.7137 C.3     1  UNL1        0.2525
     44 O          59.2300   80.6075   14.2497 O.3     1  UNL1       -0.4714
@<TRIPOS>BOND
     1    43    44    1
     2    44    37    1
     3    37    38   ar
     4    38    39   ar
     5    39    40   ar
     6    40    41   ar
     7    41    36    1
     8    36    35    1
     9    35    24    1
    10    24     1    1
    11     1     2    1
    12     2     3   ar
    13     3     4   ar
    14     4     5   ar
    15     5     6   ar
    16     6     7   ar
    17     7     8    1
    18     8     9   ar
    19     9    10   ar
    20    10    11   ar
    21    11    14    1
    22    14    15    1
    23    15    16    1
    24    16    17    1
    25    17    18    1
    26    17    19    1
    27    19    20    1
    28    20    21    1
    29    20    22    1
    30    11    12   ar
    31    12    13   ar
    32    24    25   am
    33    25    26    2
    34    25    27   am
    35    27    29    1
    36    29    30    1
    37    30    31    1
    38    31    32    1
    39    32    33    1
    40    33    34    1
    41    41    42   ar
    42    42    37   ar
    43     7     2   ar
    44    13     8   ar
    45    34    29    1
    46    22    15    1
    47    19    23    1
    48    27    28    1
@<TRIPOS>MOLECULE
*****
 44 48 0 0 0
SMALL
GASTEIGER

@<TRIPOS>ATOM
      1 C          63.1588   89.7391   11.5814 C.3     1  UNL1        0.1217
      2 C          61.6650   89.7711   11.4492 C.ar    1  UNL1       -0.0023
      3 C          60.9206   91.0558   11.6626 C.ar    1  UNL1       -0.0026
      4 C          59.4267   91.0878   11.5304 C.ar    1  UNL1       -0.0003
      5 C          58.6773   89.8353   11.1847 C.ar    1  UNL1       -0.0000
      6 C          59.4218   88.5506   10.9713 C.ar    1  UNL1       -0.0003
      7 C          60.9155   88.5185   11.1035 C.ar    1  UNL1       -0.0024
      8 C          61.6600   87.2339   10.8900 C.ar    1  UNL1       -0.0003
      9 C          62.0151   86.7948    9.5004 C.ar    1  UNL1       -0.0003
     10 C          62.7595   85.5102    9.2870 C.ar    1  UNL1       -0.0029
     11 C          63.1488   84.6647   10.4632 C.ar    1  UNL1       -0.0061
     12 C          62.7937   85.1037   11.8529 C.ar    1  UNL1       -0.0029
     13 C          62.0493   86.3883   12.0663 C.ar    1  UNL1       -0.0003
     14 C          63.8932   83.3800   10.2497 C.3     1  UNL1        0.0992
     15 N          63.4114   82.1171   10.8998 N.3     1  UNL1       -0.2666
     16 C          62.9327   82.1406   12.3212 C.3     1  UNL1        0.0882
     17 C          62.4508   80.8776   12.9714 C.3     1  UNL1        0.0702
     18 C          61.9721   80.9012   14.3927 C.3     1  UNL1        0.0186
     19 N          62.4477   79.5911   12.2002 N.3     1  UNL1       -0.2974
     20 C          62.9265   79.5675   10.7788 C.3     1  UNL1        0.0702
     21 C          62.9234   78.2810   10.0076 C.3     1  UNL1        0.0186
     22 C          63.4083   80.8305   10.1286 C.3     1  UNL1        0.0882
     23 H          61.4847   79.2549   12.1921 H       1  UNL1        0.1232
     24 N          63.8373   90.5751   12.6257 N.am    1  UNL1       -0.2598
     25 C          64.7440   91.6974   12.2153 C.2     1  UNL1        0.3042
     26 O          65.4226   92.5335   13.2597 O.2     1  UNL1       -0.2526
     27 N          64.9720   91.9837   10.7607 N.am    1  UNL1       -0.2904
     28 H          64.5266   91.4350   10.0753 H       1  UNL1        0.1509
     29 C          65.8786   93.1061   10.3504 C.3     1  UNL1        0.0730
     30 C          67.2288   92.8056    9.7700 C.3     1  UNL1        0.0196
     31 C          68.1354   93.9280    9.3597 C.3     1  UNL1        0.0017
     32 C          67.6919   95.3507    9.5297 C.3     1  UNL1        0.0001
     33 C          66.3418   95.6512   10.1100 C.3     1  UNL1        0.0017
     34 C          65.4351   94.5288   10.5204 C.3     1  UNL1        0.0196
     35 C          63.6093   90.2888   14.0804 C.3     1  UNL1        0.0999
     36 C          64.5349   89.3668   14.8174 C.3     1  UNL1        0.0480
     37 C          63.6982   85.6190   15.8192 C.ar    1  UNL1        0.1384
     38 C          62.8779   85.8327   17.0566 C.ar    1  UNL1        0.0369
     39 C          62.6099   87.2244   17.5477 C.ar    1  UNL1        0.0028
     40 C          63.1622   88.4025   16.8014 C.ar    1  UNL1       -0.0040
     41 C          63.9825   88.1888   15.5639 C.ar    1  UNL1       -0.0175
     42 C          64.2505   86.7970   15.0728 C.ar    1  UNL1        0.0327
     43 C          65.0538   83.9824   14.3246 C.3     1  UNL1        0.2525
     44 O          63.9662   84.2272   15.3281 O.3     1  UNL1       -0.4714
@<TRIPOS>BOND
     1    43    44    1
     2    44    37    1
     3    37    38   ar
     4    38    39   ar
     5    39    40   ar
     6    40    41   ar
     7    41    36    1
     8    36    35    1
     9    35    24    1
    10    24     1    1
    11     1     2    1
    12     2     3   ar
    13     3     4   ar
    14     4     5   ar
    15     5     6   ar
    16     6     7   ar
    17     7     8    1
    18     8     9   ar
    19     9    10   ar
    20    10    11   ar
    21    11    14    1
    22    14    15    1
    23    15    16    1
    24    16    17    1
    25    17    18    1
    26    17    19    1
    27    19    20    1
    28    20    21    1
    29    20    22    1
    30    11    12   ar
    31    12    13   ar
    32    24    25   am
    33    25    26    2
    34    25    27   am
    35    27    29    1
    36    29    30    1
    37    30    31    1
    38    31    32    1
    39    32    33    1
    40    33    34    1
    41    41    42   ar
    42    42    37   ar
    43     7     2   ar
    44    13     8   ar
    45    34    29    1
    46    22    15    1
    47    19    23    1
    48    27    28    1
@<TRIPOS>MOLECULE
*****
 44 48 0 0 0
SMALL
GASTEIGER

@<TRIPOS>ATOM
      1 C          64.1971   86.8759   13.5106 C.3     1  UNL1        0.1217
      2 C          63.8023   87.3493   14.8781 C.ar    1  UNL1       -0.0023
      3 C          63.6458   86.3627   15.9971 C.ar    1  UNL1       -0.0026
      4 C          63.2511   86.8362   17.3646 C.ar    1  UNL1       -0.0003
      5 C          63.0129   88.2962   17.6131 C.ar    1  UNL1       -0.0000
      6 C          63.1695   89.2827   16.4941 C.ar    1  UNL1       -0.0003
      7 C          63.5642   88.8093   15.1266 C.ar    1  UNL1       -0.0024
      8 C          63.7207   89.7958   14.0075 C.ar    1  UNL1       -0.0003
      9 C          62.6426   89.9349   12.9740 C.ar    1  UNL1       -0.0003
     10 C          62.7992   90.9215   11.8550 C.ar    1  UNL1       -0.0029
     11 C          64.0338   91.7689   11.7695 C.ar    1  UNL1       -0.0061
     12 C          65.1120   91.6299   12.8031 C.ar    1  UNL1       -0.0029
     13 C          64.9555   90.6433   13.9221 C.ar    1  UNL1       -0.0003
     14 C          64.1904   92.7555   10.6505 C.3     1  UNL1        0.0992
     15 N          65.5423   93.3237   10.3353 N.3     1  UNL1       -0.2666
     16 C          66.6686   92.4106    9.9512 C.3     1  UNL1        0.0882
     17 C          68.0206   92.9789    9.6359 C.3     1  UNL1        0.0702
     18 C          69.1470   92.0658    9.2519 C.3     1  UNL1        0.0186
     19 N          68.2462   94.4602    9.7048 N.3     1  UNL1       -0.2974
     20 C          67.1197   95.3733   10.0889 C.3     1  UNL1        0.0702
     21 C          67.3453   96.8547   10.1577 C.3     1  UNL1        0.0186
     22 C          65.7678   94.8051   10.4041 C.3     1  UNL1        0.0882
     23 H          68.5606   94.7535    8.7798 H       1  UNL1        0.1232
     24 N          63.1427   86.4661   12.5255 N.am    1  UNL1       -0.2598
     25 C          62.6970   85.0356   12.4555 C.2     1  UNL1        0.3042
     26 O          61.6426   84.6259   11.4703 O.2     1  UNL1       -0.2526
     27 N          63.3057   84.0148   13.3706 N.am    1  UNL1       -0.2904
     28 H          63.9977   84.2837   14.0172 H       1  UNL1        0.1509
     29 C          62.8600   82.5842   13.3006 C.3     1  UNL1        0.0730
     30 C          61.8183   82.0758   14.2526 C.3     1  UNL1        0.0196
     31 C          61.3726   80.6452   14.1826 C.3     1  UNL1        0.0017
     32 C          61.9686   79.7231   13.1606 C.3     1  UNL1        0.0001
     33 C          63.0103   80.2316   12.2086 C.3     1  UNL1        0.0017
     34 C          63.4560   81.6621   12.2786 C.3     1  UNL1        0.0196
     35 C          62.5340   87.4870   11.6103 C.3     1  UNL1        0.0999
     36 C          62.7631   87.3990   10.1306 C.3     1  UNL1        0.0480
     37 C          60.5458   85.6249    7.3581 C.ar    1  UNL1        0.1384
     38 C          59.3249   86.4961    7.3713 C.ar    1  UNL1        0.0369
     39 C          59.2499   87.6682    8.3043 C.ar    1  UNL1        0.0028
     40 C          60.3960   87.9692    9.2240 C.ar    1  UNL1       -0.0040
     41 C          61.6169   87.0980    9.2108 C.ar    1  UNL1       -0.0175
     42 C          61.6919   85.9259    8.2778 C.ar    1  UNL1        0.0327
     43 C          61.8018   84.2935    5.5142 C.3     1  UNL1        0.2525
     44 O          60.6208   84.4527    6.4251 O.3     1  UNL1       -0.4714
@<TRIPOS>BOND
     1    43    44    1
     2    44    37    1
     3    37    38   ar
     4    38    39   ar
     5    39    40   ar
     6    40    41   ar
     7    41    36    1
     8    36    35    1
     9    35    24    1
    10    24     1    1
    11     1     2    1
    12     2     3   ar
    13     3     4   ar
    14     4     5   ar
    15     5     6   ar
    16     6     7   ar
    17     7     8    1
    18     8     9   ar
    19     9    10   ar
    20    10    11   ar
    21    11    14    1
    22    14    15    1
    23    15    16    1
    24    16    17    1
    25    17    18    1
    26    17    19    1
    27    19    20    1
    28    20    21    1
    29    20    22    1
    30    11    12   ar
    31    12    13   ar
    32    24    25   am
    33    25    26    2
    34    25    27   am
    35    27    29    1
    36    29    30    1
    37    30    31    1
    38    31    32    1
    39    32    33    1
    40    33    34    1
    41    41    42   ar
    42    42    37   ar
    43     7     2   ar
    44    13     8   ar
    45    34    29    1
    46    22    15    1
    47    19    23    1
    48    27    28    1
@<TRIPOS>MOLECULE
*****
 44 48 0 0 0
SMALL
GASTEIGER

@<TRIPOS>ATOM
      1 C          64.1176   87.8247   13.3340 C.3     1  UNL1        0.1217
      2 C          63.7363   87.8998   14.7827 C.ar    1  UNL1       -0.0023
      3 C          63.1803   86.6911   15.4757 C.ar    1  UNL1       -0.0026
      4 C          62.7990   86.7663   16.9245 C.ar    1  UNL1       -0.0003
      5 C          62.9737   88.0501   17.6803 C.ar    1  UNL1       -0.0000
      6 C          63.5296   89.2588   16.9874 C.ar    1  UNL1       -0.0003
      7 C          63.9109   89.1836   15.5387 C.ar    1  UNL1       -0.0024
      8 C          64.4668   90.3923   14.8458 C.ar    1  UNL1       -0.0003
      9 C          63.9684   90.7708   13.4826 C.ar    1  UNL1       -0.0003
     10 C          64.5244   91.9795   12.7897 C.ar    1  UNL1       -0.0029
     11 C          65.5787   92.8096   13.4599 C.ar    1  UNL1       -0.0061
     12 C          66.0771   92.4310   14.8232 C.ar    1  UNL1       -0.0029
     13 C          65.5212   91.2224   15.5161 C.ar    1  UNL1       -0.0003
     14 C          66.1346   94.0182   12.7670 C.3     1  UNL1        0.0992
     15 N          66.6633   93.9038   11.3680 N.3     1  UNL1       -0.2666
     16 C          66.5718   95.0737   10.4337 C.3     1  UNL1        0.0882
     17 C          67.1005   94.9593    9.0346 C.3     1  UNL1        0.0702
     18 C          67.0091   96.1292    8.1003 C.3     1  UNL1        0.0186
     19 N          67.7206   93.6750    8.5698 N.3     1  UNL1       -0.2974
     20 C          67.8120   92.5050    9.5042 C.3     1  UNL1        0.0702
     21 C          68.4321   91.2207    9.0394 C.3     1  UNL1        0.0186
     22 C          67.2834   92.6195   10.9032 C.3     1  UNL1        0.0882
     23 H          68.6734   93.8958    8.2804 H       1  UNL1        0.1232
     24 N          63.1214   87.3452   12.3202 N.am    1  UNL1       -0.2598
     25 C          62.8091   85.8823   12.2092 C.2     1  UNL1        0.3042
     26 O          61.8129   85.4029   11.1953 O.2     1  UNL1       -0.2526
     27 N          63.4930   84.8988   13.1119 N.am    1  UNL1       -0.2904
     28 H          64.1468   85.2134   13.7773 H       1  UNL1        0.1509
     29 C          63.1807   83.4359   13.0009 C.3     1  UNL1        0.0730
     30 C          63.4574   82.7050   11.7206 C.3     1  UNL1        0.0196
     31 C          63.1451   81.2421   11.6096 C.3     1  UNL1        0.0017
     32 C          62.5561   80.5100   12.7788 C.3     1  UNL1        0.0001
     33 C          62.2794   81.2409   14.0591 C.3     1  UNL1        0.0017
     34 C          62.5917   82.7039   14.1702 C.3     1  UNL1        0.0196
     35 C          62.4375   88.3288   11.4174 C.3     1  UNL1        0.0999
     36 C          62.5668   88.1962    9.9289 C.3     1  UNL1        0.0480
     37 C          60.3821   85.9699    7.4752 C.ar    1  UNL1        0.1384
     38 C          59.0843   86.7217    7.4901 C.ar    1  UNL1        0.0369
     39 C          58.9473   87.9651    8.3179 C.ar    1  UNL1        0.0028
     40 C          60.1081   88.4566    9.1309 C.ar    1  UNL1       -0.0040
     41 C          61.4059   87.7048    9.1160 C.ar    1  UNL1       -0.0175
     42 C          61.5430   86.4614    8.2882 C.ar    1  UNL1        0.0327
     43 C          61.8467   84.3661    6.0494 C.3     1  UNL1        0.2525
     44 O          60.5192   84.7265    6.6474 O.3     1  UNL1       -0.4714
@<TRIPOS>BOND
     1    43    44    1
     2    44    37    1
     3    37    38   ar
     4    38    39   ar
     5    39    40   ar
     6    40    41   ar
     7    41    36    1
     8    36    35    1
     9    35    24    1
    10    24     1    1
    11     1     2    1
    12     2     3   ar
    13     3     4   ar
    14     4     5   ar
    15     5     6   ar
    16     6     7   ar
    17     7     8    1
    18     8     9   ar
    19     9    10   ar
    20    10    11   ar
    21    11    14    1
    22    14    15    1
    23    15    16    1
    24    16    17    1
    25    17    18    1
    26    17    19    1
    27    19    20    1
    28    20    21    1
    29    20    22    1
    30    11    12   ar
    31    12    13   ar
    32    24    25   am
    33    25    26    2
    34    25    27   am
    35    27    29    1
    36    29    30    1
    37    30    31    1
    38    31    32    1
    39    32    33    1
    40    33    34    1
    41    41    42   ar
    42    42    37   ar
    43     7     2   ar
    44    13     8   ar
    45    34    29    1
    46    22    15    1
    47    19    23    1
    48    27    28    1
@<TRIPOS>MOLECULE
*****
 44 48 0 0 0
SMALL
GASTEIGER

@<TRIPOS>ATOM
      1 C          64.1844   88.0719   13.2122 C.3     1  UNL1        0.1217
      2 C          63.7793   88.1608   14.6537 C.ar    1  UNL1       -0.0023
      3 C          63.1908   86.9653   15.3425 C.ar    1  UNL1       -0.0026
      4 C          62.7857   87.0542   16.7840 C.ar    1  UNL1       -0.0003
      5 C          62.9692   88.3385   17.5368 C.ar    1  UNL1       -0.0000
      6 C          63.5577   89.5340   16.8481 C.ar    1  UNL1       -0.0003
      7 C          63.9628   89.4452   15.4066 C.ar    1  UNL1       -0.0024
      8 C          64.5513   90.6407   14.7178 C.ar    1  UNL1       -0.0003
      9 C          64.1414   90.9749   13.3142 C.ar    1  UNL1       -0.0003
     10 C          64.7299   92.1704   12.6255 C.ar    1  UNL1       -0.0029
     11 C          65.7284   93.0318   13.3404 C.ar    1  UNL1       -0.0061
     12 C          66.1384   92.6976   14.7441 C.ar    1  UNL1       -0.0029
     13 C          65.5498   91.5021   15.4328 C.ar    1  UNL1       -0.0003
     14 C          66.3169   94.2273   12.6516 C.3     1  UNL1        0.0992
     15 N          66.7403   94.1327   11.2158 N.3     1  UNL1       -0.2666
     16 C          67.5124   92.9385   10.7387 C.3     1  UNL1        0.0882
     17 C          67.9359   92.8439    9.3028 C.3     1  UNL1        0.0702
     18 C          68.7080   91.6497    8.8257 C.3     1  UNL1        0.0186
     19 N          67.5871   93.9434    8.3440 N.3     1  UNL1       -0.2974
     20 C          66.8149   95.1377    8.8211 C.3     1  UNL1        0.0702
     21 C          66.4661   96.2372    7.8623 C.3     1  UNL1        0.0186
     22 C          66.3915   95.2323   10.2570 C.3     1  UNL1        0.0882
     23 H          67.0397   93.5187    7.5954 H       1  UNL1        0.1232
     24 N          63.2100   87.5684   12.1891 N.am    1  UNL1       -0.2598
     25 C          62.8559   86.1115   12.1438 C.2     1  UNL1        0.3042
     26 O          61.8814   85.6080   11.1205 O.2     1  UNL1       -0.2526
     27 N          63.4761   85.1582   13.1216 N.am    1  UNL1       -0.2904
     28 H          64.1157   85.4886   13.7932 H       1  UNL1        0.1509
     29 C          63.1220   83.7013   13.0764 C.3     1  UNL1        0.0730
     30 C          63.4735   82.8811   11.8707 C.3     1  UNL1        0.0196
     31 C          63.1194   81.4242   11.8254 C.3     1  UNL1        0.0017
     32 C          62.4137   80.7875   12.9858 C.3     1  UNL1        0.0001
     33 C          62.0621   81.6076   14.1914 C.3     1  UNL1        0.0017
     34 C          62.4163   83.0645   14.2367 C.3     1  UNL1        0.0196
     35 C          62.5897   88.5218   11.2111 C.3     1  UNL1        0.0999
     36 C          61.0968   88.6266   11.1099 C.3     1  UNL1        0.0480
     37 C          59.7272   89.2161    7.4320 C.ar    1  UNL1        0.1384
     38 C          59.0527   87.9029    7.1668 C.ar    1  UNL1        0.0369
     39 C          59.0595   86.8308    8.2160 C.ar    1  UNL1        0.0028
     40 C          59.7409   87.0721    9.5303 C.ar    1  UNL1       -0.0040
     41 C          60.4154   88.3853    9.7955 C.ar    1  UNL1       -0.0175
     42 C          60.4085   89.4574    8.7463 C.ar    1  UNL1        0.0327
     43 C          58.4657   90.5757    5.6126 C.3     1  UNL1        0.2525
     44 O          59.7203   90.2881    6.3829 O.3     1  UNL1       -0.4714
@<TRIPOS>BOND
     1    43    44    1
     2    44    37    1
     3    37    38   ar
     4    38    39   ar
     5    39    40   ar
     6    40    41   ar
     7    41    36    1
     8    36    35    1
     9    35    24    1
    10    24     1    1
    11     1     2    1
    12     2     3   ar
    13     3     4   ar
    14     4     5   ar
    15     5     6   ar
    16     6     7   ar
    17     7     8    1
    18     8     9   ar
    19     9    10   ar
    20    10    11   ar
    21    11    14    1
    22    14    15    1
    23    15    16    1
    24    16    17    1
    25    17    18    1
    26    17    19    1
    27    19    20    1
    28    20    21    1
    29    20    22    1
    30    11    12   ar
    31    12    13   ar
    32    24    25   am
    33    25    26    2
    34    25    27   am
    35    27    29    1
    36    29    30    1
    37    30    31    1
    38    31    32    1
    39    32    33    1
    40    33    34    1
    41    41    42   ar
    42    42    37   ar
    43     7     2   ar
    44    13     8   ar
    45    34    29    1
    46    22    15    1
    47    19    23    1
    48    27    28    1
@<TRIPOS>MOLECULE
*****
 44 48 0 0 0
SMALL
GASTEIGER

@<TRIPOS>ATOM
      1 C          64.1763   89.5177   13.1262 C.3     1  UNL1        0.1217
      2 C          64.0753   90.2156   14.4501 C.ar    1  UNL1       -0.0023
      3 C          64.2163   91.7071   14.5244 C.ar    1  UNL1       -0.0026
      4 C          64.1152   92.4049   15.8484 C.ar    1  UNL1       -0.0003
      5 C          63.8731   91.6113   17.0980 C.ar    1  UNL1       -0.0000
      6 C          63.7321   90.1197   17.0236 C.ar    1  UNL1       -0.0003
      7 C          63.8332   89.4219   15.6997 C.ar    1  UNL1       -0.0024
      8 C          63.6922   87.9304   15.6254 C.ar    1  UNL1       -0.0003
      9 C          62.9623   87.1912   16.7074 C.ar    1  UNL1       -0.0003
     10 C          62.8213   85.6997   16.6331 C.ar    1  UNL1       -0.0029
     11 C          63.4102   84.9474   15.4767 C.ar    1  UNL1       -0.0061
     12 C          64.1401   85.6866   14.3946 C.ar    1  UNL1       -0.0029
     13 C          64.2811   87.1781   14.4689 C.ar    1  UNL1       -0.0003
     14 C          63.2692   83.4559   15.4023 C.3     1  UNL1        0.0992
     15 N          63.2339   82.7715   14.0681 N.3     1  UNL1       -0.2666
     16 C          62.8288   81.3302   13.9750 C.3     1  UNL1        0.0882
     17 C          62.7935   80.6457   12.6407 C.3     1  UNL1        0.0702
     18 C          62.3884   79.2045   12.5476 C.3     1  UNL1        0.0186
     19 N          63.1633   81.4025   11.3996 N.3     1  UNL1       -0.2974
     20 C          63.5684   82.8438   11.4927 C.3     1  UNL1        0.0702
     21 C          63.9382   83.6006   10.2515 C.3     1  UNL1        0.0186
     22 C          63.6037   83.5282   12.8269 C.3     1  UNL1        0.0882
     23 H          62.3548   81.3634   10.7789 H       1  UNL1        0.1232
     24 N          63.5080   90.1024   11.9173 N.am    1  UNL1       -0.2598
     25 C          64.1558   91.2341   11.1759 C.2     1  UNL1        0.3042
     26 O          63.4874   91.8188    9.9669 O.2     1  UNL1       -0.2526
     27 N          65.4719   91.7811   11.6434 N.am    1  UNL1       -0.2904
     28 H          65.9106   91.3973   12.4368 H       1  UNL1        0.1509
     29 C          66.1197   92.9128   10.9020 C.3     1  UNL1        0.0730
     30 C          67.2385   92.6373    9.9416 C.3     1  UNL1        0.0196
     31 C          67.8863   93.7689    9.2002 C.3     1  UNL1        0.0017
     32 C          67.4153   95.1761    9.4191 C.3     1  UNL1        0.0001
     33 C          66.2965   95.4516   10.3795 C.3     1  UNL1        0.0017
     34 C          65.6487   94.3199   11.1209 C.3     1  UNL1        0.0196
     35 C          62.1918   89.5554   11.4497 C.3     1  UNL1        0.0999
     36 C          61.9714   88.0726   11.3988 C.3     1  UNL1        0.0480
     37 C          61.6140   85.8799    8.1103 C.ar    1  UNL1        0.1384
     38 C          60.1992   86.1863    7.7176 C.ar    1  UNL1        0.0369
     39 C          59.3750   87.1215    8.5520 C.ar    1  UNL1        0.0028
     40 C          59.9657   87.7503    9.7791 C.ar    1  UNL1       -0.0040
     41 C          61.3806   87.4438   10.1717 C.ar    1  UNL1       -0.0175
     42 C          62.2047   86.5087    9.3373 C.ar    1  UNL1        0.0327
     43 C          61.8956   84.4202    5.9796 C.3     1  UNL1        0.2525
     44 O          62.4382   84.9447    7.2759 O.3     1  UNL1       -0.4714
@<TRIPOS>BOND
     1    43    44    1
     2    44    37    1
     3    37    38   ar
     4    38    39   ar
     5    39    40   ar
     6    40    41   ar
     7    41    36    1
     8    36    35    1
     9    35    24    1
    10    24     1    1
    11     1     2    1
    12     2     3   ar
    13     3     4   ar
    14     4     5   ar
    15     5     6   ar
    16     6     7   ar
    17     7     8    1
    18     8     9   ar
    19     9    10   ar
    20    10    11   ar
    21    11    14    1
    22    14    15    1
    23    15    16    1
    24    16    17    1
    25    17    18    1
    26    17    19    1
    27    19    20    1
    28    20    21    1
    29    20    22    1
    30    11    12   ar
    31    12    13   ar
    32    24    25   am
    33    25    26    2
    34    25    27   am
    35    27    29    1
    36    29    30    1
    37    30    31    1
    38    31    32    1
    39    32    33    1
    40    33    34    1
    41    41    42   ar
    42    42    37   ar
    43     7     2   ar
    44    13     8   ar
    45    34    29    1
    46    22    15    1
    47    19    23    1
    48    27    28    1
@<TRIPOS>MOLECULE
*****
 44 48 0 0 0
SMALL
GASTEIGER

@<TRIPOS>ATOM
      1 C          64.1427   89.5683   13.1334 C.3     1  UNL1        0.1217
      2 C          64.0380   90.2446   14.4682 C.ar    1  UNL1       -0.0023
      3 C          64.1465   91.7376   14.5631 C.ar    1  UNL1       -0.0026
      4 C          64.0418   92.4139   15.8979 C.ar    1  UNL1       -0.0003
      5 C          63.8286   91.5971   17.1378 C.ar    1  UNL1       -0.0000
      6 C          63.7201   90.1040   17.0429 C.ar    1  UNL1       -0.0003
      7 C          63.8248   89.4278   15.7082 C.ar    1  UNL1       -0.0024
      8 C          63.7163   87.9347   15.6133 C.ar    1  UNL1       -0.0003
      9 C          62.9324   87.1729   16.6405 C.ar    1  UNL1       -0.0003
     10 C          62.8240   85.6799   16.5456 C.ar    1  UNL1       -0.0029
     11 C          63.4993   84.9486   15.4235 C.ar    1  UNL1       -0.0061
     12 C          64.2832   85.7104   14.3963 C.ar    1  UNL1       -0.0029
     13 C          64.3917   87.2035   14.4911 C.ar    1  UNL1       -0.0003
     14 C          63.3908   83.4555   15.3286 C.3     1  UNL1        0.0992
     15 N          63.2927   82.7945   13.9858 N.3     1  UNL1       -0.2666
     16 C          62.9214   81.3445   13.8890 C.3     1  UNL1        0.0882
     17 C          62.8232   80.6834   12.5460 C.3     1  UNL1        0.0702
     18 C          62.4519   79.2333   12.4493 C.3     1  UNL1        0.0186
     19 N          63.0965   81.4724   11.2999 N.3     1  UNL1       -0.2974
     20 C          63.4679   82.9225   11.3968 C.3     1  UNL1        0.0702
     21 C          63.7411   83.7116   10.1507 C.3     1  UNL1        0.0186
     22 C          63.5660   83.5835   12.7397 C.3     1  UNL1        0.0882
     23 H          62.2530   81.4220   10.7286 H       1  UNL1        0.1232
     24 N          63.4804   90.1742   11.9317 N.am    1  UNL1       -0.2598
     25 C          64.1560   91.2846   11.1830 C.2     1  UNL1        0.3042
     26 O          63.4936   91.8905    9.9812 O.2     1  UNL1       -0.2526
     27 N          65.4940   91.7890   11.6360 N.am    1  UNL1       -0.2904
     28 H          65.9287   91.3914   12.4247 H       1  UNL1        0.1509
     29 C          66.1696   92.8994   10.8872 C.3     1  UNL1        0.0730
     30 C          67.2799   92.5897    9.9273 C.3     1  UNL1        0.0196
     31 C          67.9555   93.7001    9.1786 C.3     1  UNL1        0.0017
     32 C          67.5209   95.1201    9.3898 C.3     1  UNL1        0.0001
     33 C          66.4107   95.4298   10.3497 C.3     1  UNL1        0.0017
     34 C          65.7351   94.3194   11.0984 C.3     1  UNL1        0.0196
     35 C          62.1423   89.6697   11.4787 C.3     1  UNL1        0.0999
     36 C          61.9556   88.2143   11.1674 C.3     1  UNL1        0.0480
     37 C          59.6539   88.4046    7.9399 C.ar    1  UNL1        0.1384
     38 C          59.6798   86.9743    7.4886 C.ar    1  UNL1        0.0369
     39 C          60.4643   85.9574    8.2636 C.ar    1  UNL1        0.0028
     40 C          61.2229   86.3707    9.4898 C.ar    1  UNL1       -0.0040
     41 C          61.1970   87.8010    9.9411 C.ar    1  UNL1       -0.0175
     42 C          60.4125   88.8179    9.1662 C.ar    1  UNL1        0.0327
     43 C          59.4479   90.0249    5.9196 C.3     1  UNL1        0.2525
     44 O          58.8695   89.4215    7.1650 O.3     1  UNL1       -0.4714
@<TRIPOS>BOND
     1    43    44    1
     2    44    37    1
     3    37    38   ar
     4    38    39   ar
     5    39    40   ar
     6    40    41   ar
     7    41    36    1
     8    36    35    1
     9    35    24    1
    10    24     1    1
    11     1     2    1
    12     2     3   ar
    13     3     4   ar
    14     4     5   ar
    15     5     6   ar
    16     6     7   ar
    17     7     8    1
    18     8     9   ar
    19     9    10   ar
    20    10    11   ar
    21    11    14    1
    22    14    15    1
    23    15    16    1
    24    16    17    1
    25    17    18    1
    26    17    19    1
    27    19    20    1
    28    20    21    1
    29    20    22    1
    30    11    12   ar
    31    12    13   ar
    32    24    25   am
    33    25    26    2
    34    25    27   am
    35    27    29    1
    36    29    30    1
    37    30    31    1
    38    31    32    1
    39    32    33    1
    40    33    34    1
    41    41    42   ar
    42    42    37   ar
    43     7     2   ar
    44    13     8   ar
    45    34    29    1
    46    22    15    1
    47    19    23    1
    48    27    28    1
@<TRIPOS>MOLECULE
*****
 44 48 0 0 0
SMALL
GASTEIGER

@<TRIPOS>ATOM
      1 C          64.1154   89.5575   13.1279 C.3     1  UNL1        0.1217
      2 C          64.0042   90.2240   14.4671 C.ar    1  UNL1       -0.0023
      3 C          64.0697   91.7191   14.5685 C.ar    1  UNL1       -0.0026
      4 C          63.9584   92.3856   15.9078 C.ar    1  UNL1       -0.0003
      5 C          63.7816   91.5569   17.1455 C.ar    1  UNL1       -0.0000
      6 C          63.7162   90.0618   17.0441 C.ar    1  UNL1       -0.0003
      7 C          63.8274   89.3953   15.7049 C.ar    1  UNL1       -0.0024
      8 C          63.7619   87.9002   15.6035 C.ar    1  UNL1       -0.0003
      9 C          64.5304   87.1868   14.5309 C.ar    1  UNL1       -0.0003
     10 C          64.4649   85.6917   14.4294 C.ar    1  UNL1       -0.0029
     11 C          63.6309   84.9099   15.4006 C.ar    1  UNL1       -0.0061
     12 C          62.8624   85.6232   16.4733 C.ar    1  UNL1       -0.0029
     13 C          62.9279   87.1184   16.5748 C.ar    1  UNL1       -0.0003
     14 C          63.5654   83.4148   15.2992 C.3     1  UNL1        0.0992
     15 N          63.4072   82.7602   13.9589 N.3     1  UNL1       -0.2666
     16 C          63.6650   83.5441   12.7063 C.3     1  UNL1        0.0882
     17 C          63.5067   82.8895   11.3659 C.3     1  UNL1        0.0702
     18 C          63.7645   83.6734   10.1134 C.3     1  UNL1        0.0186
     19 N          63.0906   81.4510   11.2782 N.3     1  UNL1       -0.2974
     20 C          62.8328   80.6671   12.5309 C.3     1  UNL1        0.0702
     21 C          62.4167   79.2287   12.4432 C.3     1  UNL1        0.0186
     22 C          62.9911   81.3217   13.8712 C.3     1  UNL1        0.0882
     23 H          63.8280   80.9616   10.7711 H       1  UNL1        0.1232
     24 N          63.4559   90.1703   11.9282 N.am    1  UNL1       -0.2598
     25 C          64.1386   91.2769   11.1804 C.2     1  UNL1        0.3042
     26 O          63.4789   91.8896    9.9805 O.2     1  UNL1       -0.2526
     27 N          65.4809   91.7708   11.6323 N.am    1  UNL1       -0.2904
     28 H          65.9138   91.3686   12.4197 H       1  UNL1        0.1509
     29 C          66.1636   92.8774   10.8844 C.3     1  UNL1        0.0730
     30 C          67.2773   92.5622    9.9304 C.3     1  UNL1        0.0196
     31 C          67.9600   93.6689    9.1825 C.3     1  UNL1        0.0017
     32 C          67.5290   95.0907    9.3888 C.3     1  UNL1        0.0001
     33 C          66.4153   95.4059   10.3429 C.3     1  UNL1        0.0017
     34 C          65.7326   94.2993   11.0907 C.3     1  UNL1        0.0196
     35 C          62.1135   89.6764   11.4762 C.3     1  UNL1        0.0999
     36 C          61.9128   88.2211   11.1733 C.3     1  UNL1        0.0480
     37 C          59.6481   88.4117    7.9199 C.ar    1  UNL1        0.1384
     38 C          59.6769   86.9810    7.4703 C.ar    1  UNL1        0.0369
     39 C          60.4509   85.9637    8.2550 C.ar    1  UNL1        0.0028
     40 C          61.1962   86.3770    9.4893 C.ar    1  UNL1       -0.0040
     41 C          61.1675   87.8077    9.9389 C.ar    1  UNL1       -0.0175
     42 C          60.3934   88.8251    9.1542 C.ar    1  UNL1        0.0327
     43 C          59.4722   90.0390    5.9023 C.3     1  UNL1        0.2525
     44 O          58.8741   89.4291    7.1352 O.3     1  UNL1       -0.4714
@<TRIPOS>BOND
     1    43    44    1
     2    44    37    1
     3    37    38   ar
     4    38    39   ar
     5    39    40   ar
     6    40    41   ar
     7    41    36    1
     8    36    35    1
     9    35    24    1
    10    24     1    1
    11     1     2    1
    12     2     3   ar
    13     3     4   ar
    14     4     5   ar
    15     5     6   ar
    16     6     7   ar
    17     7     8    1
    18     8     9   ar
    19     9    10   ar
    20    10    11   ar
    21    11    14    1
    22    14    15    1
    23    15    16    1
    24    16    17    1
    25    17    18    1
    26    17    19    1
    27    19    20    1
    28    20    21    1
    29    20    22    1
    30    11    12   ar
    31    12    13   ar
    32    24    25   am
    33    25    26    2
    34    25    27   am
    35    27    29    1
    36    29    30    1
    37    30    31    1
    38    31    32    1
    39    32    33    1
    40    33    34    1
    41    41    42   ar
    42    42    37   ar
    43     7     2   ar
    44    13     8   ar
    45    34    29    1
    46    22    15    1
    47    19    23    1
    48    27    28    1
@<TRIPOS>MOLECULE
*****
 44 48 0 0 0
SMALL
GASTEIGER

@<TRIPOS>ATOM
      1 C          63.8576   89.5183   13.1377 C.3     1  UNL1        0.1217
      2 C          63.8404   90.1834   14.4821 C.ar    1  UNL1       -0.0023
      3 C          63.8751   91.6799   14.5790 C.ar    1  UNL1       -0.0026
      4 C          63.8579   92.3450   15.9234 C.ar    1  UNL1       -0.0003
      5 C          63.8059   91.5137   17.1708 C.ar    1  UNL1       -0.0000
      6 C          63.7711   90.0172   17.0739 C.ar    1  UNL1       -0.0003
      7 C          63.7884   89.3521   15.7296 C.ar    1  UNL1       -0.0024
      8 C          63.7536   87.8556   15.6327 C.ar    1  UNL1       -0.0003
      9 C          62.9014   87.0624   16.5785 C.ar    1  UNL1       -0.0003
     10 C          62.8667   85.5659   16.4816 C.ar    1  UNL1       -0.0029
     11 C          63.6841   84.8627   15.4389 C.ar    1  UNL1       -0.0061
     12 C          64.5364   85.6559   14.4930 C.ar    1  UNL1       -0.0029
     13 C          64.5711   87.1524   14.5899 C.ar    1  UNL1       -0.0003
     14 C          63.6494   83.3662   15.3420 C.3     1  UNL1        0.0992
     15 N          63.4648   82.7051   14.0083 N.3     1  UNL1       -0.2666
     16 C          63.7541   83.4653   12.7480 C.3     1  UNL1        0.0882
     17 C          63.5696   82.8041   11.4142 C.3     1  UNL1        0.0702
     18 C          63.8589   83.5643   10.1539 C.3     1  UNL1        0.0186
     19 N          63.0957   81.3829   11.3408 N.3     1  UNL1       -0.2974
     20 C          62.8063   80.6227   12.6012 C.3     1  UNL1        0.0702
     21 C          62.3324   79.2014   12.5278 C.3     1  UNL1        0.0186
     22 C          62.9909   81.2838   13.9349 C.3     1  UNL1        0.0882
     23 H          63.8126   80.8589   10.8389 H       1  UNL1        0.1232
     24 N          63.6209   90.3279   11.8974 N.am    1  UNL1       -0.2598
     25 C          62.7891   89.7663   10.7826 C.2     1  UNL1        0.3042
     26 O          62.5524   90.5759    9.5422 O.2     1  UNL1       -0.2526
     27 N          62.1940   88.3951   10.9081 N.am    1  UNL1       -0.2904
     28 H          62.3494   87.8638   11.7222 H       1  UNL1        0.1509
     29 C          61.3623   87.8336    9.7933 C.3     1  UNL1        0.0730
     30 C          61.7086   86.5016    9.1968 C.3     1  UNL1        0.0196
     31 C          60.8768   85.9400    8.0820 C.3     1  UNL1        0.0017
     32 C          59.6987   86.7104    7.5637 C.3     1  UNL1        0.0001
     33 C          59.3524   88.0423    8.1603 C.3     1  UNL1        0.0017
     34 C          60.1842   88.6039    9.2751 C.3     1  UNL1        0.0196
     35 C          64.2159   91.6991   11.7718 C.3     1  UNL1        0.0999
     36 C          65.7018   91.8831   11.8631 C.3     1  UNL1        0.0480
     37 C          66.6109   95.1526    9.8054 C.ar    1  UNL1        0.1384
     38 C          67.8014   94.6760    9.0274 C.ar    1  UNL1        0.0369
     39 C          68.2922   93.2685    9.1946 C.ar    1  UNL1        0.0028
     40 C          67.5923   92.3375   10.1398 C.ar    1  UNL1       -0.0040
     41 C          66.4017   92.8141   10.9178 C.ar    1  UNL1       -0.0175
     42 C          65.9110   94.2217   10.7506 C.ar    1  UNL1        0.0327
     43 C          64.6506   96.8545    9.7004 C.3     1  UNL1        0.2525
     44 O          66.1201   96.5602    9.6382 O.3     1  UNL1       -0.4714
@<TRIPOS>BOND
     1    43    44    1
     2    44    37    1
     3    37    38   ar
     4    38    39   ar
     5    39    40   ar
     6    40    41   ar
     7    41    36    1
     8    36    35    1
     9    35    24    1
    10    24     1    1
    11     1     2    1
    12     2     3   ar
    13     3     4   ar
    14     4     5   ar
    15     5     6   ar
    16     6     7   ar
    17     7     8    1
    18     8     9   ar
    19     9    10   ar
    20    10    11   ar
    21    11    14    1
    22    14    15    1
    23    15    16    1
    24    16    17    1
    25    17    18    1
    26    17    19    1
    27    19    20    1
    28    20    21    1
    29    20    22    1
    30    11    12   ar
    31    12    13   ar
    32    24    25   am
    33    25    26    2
    34    25    27   am
    35    27    29    1
    36    29    30    1
    37    30    31    1
    38    31    32    1
    39    32    33    1
    40    33    34    1
    41    41    42   ar
    42    42    37   ar
    43     7     2   ar
    44    13     8   ar
    45    34    29    1
    46    22    15    1
    47    19    23    1
    48    27    28    1
