@<TRIPOS>MOLECULE
*****
 41 46 0 0 0
SMALL
GASTEIGER

@<TRIPOS>ATOM
      1 C          63.8753   89.2747   13.1876 C.2     1  UNL1        0.0357
      2 C          64.3870   88.1616   14.0532 C.2     1  UNL1        0.0021
      3 C          63.9604   86.7483   13.7876 C.2     1  UNL1        0.0205
      4 C          63.0222   86.4481   12.6564 C.2     1  UNL1        0.1007
      5 N          62.4309   85.1631   12.1569 N.2     1  UNL1       -0.1483
      6 N          61.5538   85.4821   10.9827 N.2     1  UNL1       -0.1483
      7 C          61.6030   86.9641   10.7564 C.2     1  UNL1        0.1007
      8 C          62.5105   87.5611   11.7908 C.2     1  UNL1        0.0211
      9 C          62.9371   88.9744   12.0564 C.3     1  UNL1        0.0604
     10 C          60.8729   87.7170    9.6840 C.ar    1  UNL1        0.0193
     11 C          60.8229   89.2157    9.7212 C.ar    1  UNL1        0.0047
     12 C          60.0928   89.9686    8.6488 C.ar    1  UNL1        0.0369
     13 C          59.4126   89.2228    7.5392 C.ar    1  UNL1        0.1384
     14 C          59.4626   87.7241    7.5020 C.ar    1  UNL1        0.0369
     15 C          60.1927   86.9712    8.5744 C.ar    1  UNL1        0.0047
     16 O          58.6825   89.9757    6.4668 O.3     1  UNL1       -0.4791
     17 C          59.4515   90.7503    5.4379 C.3     1  UNL1        0.1692
     18 C          58.7578   91.7898    4.6085 C.3     1  UNL1        0.0634
     19 C          59.5268   92.5644    3.5796 C.3     1  UNL1        0.0794
     20 C          60.6430   93.0682    2.7135 C.3     1  UNL1        0.0216
     21 C          61.8882   92.3150    3.0771 C.3     1  UNL1        0.0216
     22 C          61.5415   91.3456    4.1681 C.3     1  UNL1        0.0794
     23 C          60.9144   90.4852    5.2385 C.3     1  UNL1        0.0634
     24 N          60.0821   91.4998    4.4786 N.am    1  UNL1       -0.2754
     25 C          59.3131   90.7252    5.5075 C.2     1  UNL1        0.3028
     26 O          57.8502   90.9902    5.7069 O.2     1  UNL1       -0.2649
     27 N          65.5360   91.2345   12.7989 N.am    1  UNL1       -0.2975
     28 C          64.3019   90.6881   13.4532 C.2     1  UNL1        0.2424
     29 O          63.4942   91.5549   14.3730 O.2     1  UNL1       -0.2705
     30 H          66.0661   90.6655   12.1951 H       1  UNL1        0.1500
     31 C          65.9626   92.6479   13.0644 C.3     1  UNL1        0.1121
     32 C          66.2097   93.5845   11.9191 C.ar    1  UNL1        0.0768
     33 C          66.6089   93.0416   10.5790 C.ar    1  UNL1        0.0164
     34 C          66.8560   93.9782    9.4337 C.ar    1  UNL1        0.0029
     35 C          66.7039   95.4577    9.6285 C.ar    1  UNL1        0.0207
     36 C          66.3046   96.0006   10.9686 C.ar    1  UNL1        0.0985
     37 N          66.0575   95.0640   12.1139 N.ar    1  UNL1       -0.2465
     38 C          66.1420   93.1246   14.4752 C.3     1  UNL1        0.0257
     39 C          67.8723   91.4029   15.3650 C.3     1  UNL1        0.0001
     40 C          67.4126   92.8226   15.2130 C.3     1  UNL1        0.0020
     41 C          68.2235   93.9403   15.7989 C.3     1  UNL1        0.0001
@<TRIPOS>BOND
     1    39    40    1
     2    40    41    1
     3    40    38    1
     4    38    31    1
     5    31    27    1
     6    27    28   am
     7    28    29    2
     8    28     1    1
     9     1     2    2
    10     2     3    1
    11     3     4    2
    12     4     5    1
    13     5     6    2
    14     6     7    1
    15     7    10    1
    16    10    11   ar
    17    11    12   ar
    18    12    13   ar
    19    13    16    1
    20    17    16    1
    21    17    18    1
    22    19    18    1
    23    19    20    1
    24    20    21    1
    25    22    21    1
    26    22    23    1
    27    22    24    1
    28    24    25   am
    29    25    26    2
    30    13    14   ar
    31    14    15   ar
    32     7     8    2
    33     8     9    1
    34    31    32    1
    35    32    33   ar
    36    33    34   ar
    37    34    35   ar
    38    35    36   ar
    39    36    37   ar
    40     9     1    1
    41    37    32   ar
    42     8     4    1
    43    15    10   ar
    44    23    17    1
    45    24    19    1
    46    27    30    1
@<TRIPOS>MOLECULE
*****
 41 46 0 0 0
SMALL
GASTEIGER

@<TRIPOS>ATOM
      1 C          61.2210   89.0055   10.5101 C.2     1  UNL1        0.0357
      2 C          61.0478   87.5859   10.9625 C.2     1  UNL1        0.0021
      3 C          60.4068   86.5814   10.0514 C.2     1  UNL1        0.0205
      4 C          59.9391   86.9965    8.6880 C.2     1  UNL1        0.1007
      5 N          59.2767   86.2341    7.5789 N.2     1  UNL1       -0.1483
      6 N          59.0406   87.1825    6.4410 N.2     1  UNL1       -0.1483
      7 C          59.5570   88.5311    6.8469 C.2     1  UNL1        0.1007
      8 C          60.1123   88.4161    8.2356 C.2     1  UNL1        0.0211
      9 C          60.7533   89.4206    9.1467 C.3     1  UNL1        0.0604
     10 C          59.5240   89.7761    6.0109 C.ar    1  UNL1        0.0193
     11 C          60.7991   90.3467    5.4647 C.ar    1  UNL1        0.0047
     12 C          60.7661   91.5917    4.6287 C.ar    1  UNL1        0.0369
     13 C          59.4580   92.2661    4.3389 C.ar    1  UNL1        0.1384
     14 C          58.1829   91.6954    4.8852 C.ar    1  UNL1        0.0369
     15 C          58.2159   90.4504    5.7212 C.ar    1  UNL1        0.0047
     16 O          59.4250   93.5111    3.5029 O.3     1  UNL1       -0.4791
     17 C          60.1088   93.5366    2.1681 C.3     1  UNL1        0.1692
     18 C          60.8854   94.7486    1.7463 C.3     1  UNL1        0.0634
     19 C          61.5693   94.7741    0.4115 C.3     1  UNL1        0.0794
     20 C          62.0646   94.3703   -0.9456 C.3     1  UNL1        0.0216
     21 C          61.5627   92.9855   -1.2291 C.3     1  UNL1        0.0216
     22 C          60.7572   92.5333   -0.0473 C.3     1  UNL1        0.0794
     23 C          60.0161   92.3500    1.2552 C.3     1  UNL1        0.0634
     24 N          60.7613   93.6387    0.9666 N.am    1  UNL1       -0.2754
     25 C          60.0774   93.6133    2.3014 C.2     1  UNL1        0.3028
     26 O          60.1701   94.7998    3.2144 O.2     1  UNL1       -0.2649
     27 N          63.1296   89.6647   12.1450 N.am    1  UNL1       -0.2975
     28 C          61.8620   90.0101   11.4212 C.2     1  UNL1        0.2424
     29 O          61.2354   91.3600   11.6084 O.2     1  UNL1       -0.2705
     30 H          63.5409   88.7787   12.0221 H       1  UNL1        0.1500
     31 C          63.7706   90.6693   13.0560 C.3     1  UNL1        0.1121
     32 C          64.6437   91.7482   12.4870 C.ar    1  UNL1        0.0768
     33 C          64.6805   91.9797   11.0055 C.ar    1  UNL1        0.0164
     34 C          65.5536   93.0586   10.4364 C.ar    1  UNL1        0.0029
     35 C          66.3899   93.9058   11.3489 C.ar    1  UNL1        0.0207
     36 C          66.3531   93.6743   12.8305 C.ar    1  UNL1        0.0985
     37 N          65.4801   92.5955   13.3995 N.ar    1  UNL1       -0.2465
     38 C          63.5385   90.5951   14.5361 C.3     1  UNL1        0.0257
     39 C          64.4557   88.1651   14.6011 C.3     1  UNL1        0.0001
     40 C          63.7167   89.2928   15.2587 C.3     1  UNL1        0.0020
     41 C          63.1559   89.1181   16.6389 C.3     1  UNL1        0.0001
@<TRIPOS>BOND
     1    39    40    1
     2    40    41    1
     3    40    38    1
     4    38    31    1
     5    31    27    1
     6    27    28   am
     7    28    29    2
     8    28     1    1
     9     1     2    2
    10     2     3    1
    11     3     4    2
    12     4     5    1
    13     5     6    2
    14     6     7    1
    15     7    10    1
    16    10    11   ar
    17    11    12   ar
    18    12    13   ar
    19    13    16    1
    20    17    16    1
    21    17    18    1
    22    19    18    1
    23    19    20    1
    24    20    21    1
    25    22    21    1
    26    22    23    1
    27    22    24    1
    28    24    25   am
    29    25    26    2
    30    13    14   ar
    31    14    15   ar
    32     7     8    2
    33     8     9    1
    34    31    32    1
    35    32    33   ar
    36    33    34   ar
    37    34    35   ar
    38    35    36   ar
    39    36    37   ar
    40     9     1    1
    41    37    32   ar
    42     8     4    1
    43    15    10   ar
    44    23    17    1
    45    24    19    1
    46    27    30    1
@<TRIPOS>MOLECULE
*****
 41 46 0 0 0
SMALL
GASTEIGER

@<TRIPOS>ATOM
      1 C          61.7811   89.5382   10.5249 C.2     1  UNL1        0.0357
      2 C          61.4963   88.2167   11.1750 C.2     1  UNL1        0.0021
      3 C          60.6123   87.2182   10.4883 C.2     1  UNL1        0.0205
      4 C          60.0131   87.5412    9.1517 C.2     1  UNL1        0.1007
      5 N          59.1106   86.7617    8.2416 N.2     1  UNL1       -0.1483
      6 N          58.8377   87.6016    7.0291 N.2     1  UNL1       -0.1483
      7 C          59.5715   88.8999    7.1898 C.2     1  UNL1        0.1007
      8 C          60.2979   88.8626    8.5016 C.2     1  UNL1        0.0211
      9 C          61.1819   89.8611    9.1882 C.3     1  UNL1        0.0604
     10 C          59.5777   90.0362    6.2106 C.ar    1  UNL1        0.0193
     11 C          60.8642   90.4687    5.5718 C.ar    1  UNL1        0.0047
     12 C          60.8704   91.6050    4.5926 C.ar    1  UNL1        0.0369
     13 C          59.5903   92.3088    4.2521 C.ar    1  UNL1        0.1384
     14 C          58.3039   91.8763    4.8909 C.ar    1  UNL1        0.0369
     15 C          58.2976   90.7400    5.8701 C.ar    1  UNL1        0.0047
     16 O          59.5966   93.4451    3.2729 O.3     1  UNL1       -0.4791
     17 C          60.5373   93.4233    2.1048 C.3     1  UNL1        0.1692
     18 C          60.0413   93.0129    0.7500 C.3     1  UNL1        0.0634
     19 C          60.9820   92.9911   -0.4182 C.3     1  UNL1        0.0794
     20 C          62.2215   93.1130   -1.2541 C.3     1  UNL1        0.0216
     21 C          63.3374   93.5743   -0.3641 C.3     1  UNL1        0.0216
     22 C          62.7875   93.7376    1.0219 C.3     1  UNL1        0.0794
     23 C          61.9739   93.8119    2.2915 C.3     1  UNL1        0.0634
     24 N          61.3318   93.3771    0.9884 N.am    1  UNL1       -0.2754
     25 C          60.3911   93.3989    2.1566 C.2     1  UNL1        0.3028
     26 O          58.9544   93.0103    1.9699 O.2     1  UNL1       -0.2649
     27 N          63.9452   90.9753   10.5641 N.am    1  UNL1       -0.2975
     28 C          62.6651   90.5368   11.2115 C.2     1  UNL1        0.2424
     29 O          62.2690   91.0968   12.5455 O.2     1  UNL1       -0.2705
     30 H          64.2052   90.6077    9.6886 H       1  UNL1        0.1500
     31 C          64.8292   91.9739   11.2508 C.3     1  UNL1        0.1121
     32 C          65.8142   92.7766   10.4536 C.ar    1  UNL1        0.0768
     33 C          67.0972   92.1489    9.9954 C.ar    1  UNL1        0.0164
     34 C          68.0821   92.9516    9.1982 C.ar    1  UNL1        0.0029
     35 C          67.7841   94.3820    8.8592 C.ar    1  UNL1        0.0207
     36 C          66.5011   95.0098    9.3174 C.ar    1  UNL1        0.0985
     37 N          65.5162   94.2071   10.1146 N.ar    1  UNL1       -0.2465
     38 C          64.7283   92.1697   12.7344 C.3     1  UNL1        0.0257
     39 C          67.0806   91.8115   13.7777 C.3     1  UNL1        0.0001
     40 C          65.6397   91.4130   13.6545 C.3     1  UNL1        0.0020
     41 C          65.1104   90.2577   14.4514 C.3     1  UNL1        0.0001
@<TRIPOS>BOND
     1    39    40    1
     2    40    41    1
     3    40    38    1
     4    38    31    1
     5    31    27    1
     6    27    28   am
     7    28    29    2
     8    28     1    1
     9     1     2    2
    10     2     3    1
    11     3     4    2
    12     4     5    1
    13     5     6    2
    14     6     7    1
    15     7    10    1
    16    10    11   ar
    17    11    12   ar
    18    12    13   ar
    19    13    16    1
    20    17    16    1
    21    17    18    1
    22    19    18    1
    23    19    20    1
    24    20    21    1
    25    22    21    1
    26    22    23    1
    27    22    24    1
    28    24    25   am
    29    25    26    2
    30    13    14   ar
    31    14    15   ar
    32     7     8    2
    33     8     9    1
    34    31    32    1
    35    32    33   ar
    36    33    34   ar
    37    34    35   ar
    38    35    36   ar
    39    36    37   ar
    40     9     1    1
    41    37    32   ar
    42     8     4    1
    43    15    10   ar
    44    23    17    1
    45    24    19    1
    46    27    30    1
@<TRIPOS>MOLECULE
*****
 41 46 0 0 0
SMALL
GASTEIGER

@<TRIPOS>ATOM
      1 C          62.0392   86.1018   11.0923 C.2     1  UNL1        0.0357
      2 C          60.9247   85.6062   10.2192 C.2     1  UNL1        0.0021
      3 C          60.2161   86.5538    9.2974 C.2     1  UNL1        0.0205
      4 C          60.6218   87.9971    9.2487 C.2     1  UNL1        0.1007
      5 N          60.1111   89.1567    8.4460 N.2     1  UNL1       -0.1483
      6 N          60.9099   90.3691    8.8230 N.2     1  UNL1       -0.1483
      7 C          61.9143   89.9586    9.8587 C.2     1  UNL1        0.1007
      8 C          61.7363   88.4927   10.1219 C.2     1  UNL1        0.0211
      9 C          62.4449   87.5451   11.0436 C.3     1  UNL1        0.0604
     10 C          62.9201   90.8565   10.5160 C.ar    1  UNL1        0.0193
     11 C          63.6887   91.8494    9.6952 C.ar    1  UNL1        0.0047
     12 C          64.6945   92.7473   10.3525 C.ar    1  UNL1        0.0369
     13 C          64.9319   92.6524   11.8305 C.ar    1  UNL1        0.1384
     14 C          64.1634   91.6596   12.6513 C.ar    1  UNL1        0.0369
     15 C          63.1575   90.7617   11.9940 C.ar    1  UNL1        0.0047
     16 O          65.9378   93.5503   12.4877 O.3     1  UNL1       -0.4791
     17 C          66.6803   93.0813   13.7038 C.3     1  UNL1        0.1692
     18 C          68.0603   92.5098   13.5659 C.3     1  UNL1        0.0634
     19 C          68.8028   92.0408   14.7819 C.3     1  UNL1        0.0794
     20 C          69.1490   91.7151   16.2046 C.3     1  UNL1        0.0216
     21 C          67.9842   92.1043   17.0659 C.3     1  UNL1        0.0216
     22 C          66.9181   92.6705   16.1755 C.3     1  UNL1        0.0794
     23 C          66.0428   93.1839   15.0576 C.3     1  UNL1        0.0634
     24 N          67.4241   92.6313   14.7640 N.am    1  UNL1       -0.2754
     25 C          66.6815   93.1003   13.5479 C.2     1  UNL1        0.3028
     26 O          67.3190   92.9978   12.1940 O.2     1  UNL1       -0.2649
     27 N          62.3281   85.0502   13.4505 N.am    1  UNL1       -0.2975
     28 C          62.7479   85.1542   12.0142 C.2     1  UNL1        0.2424
     29 O          63.8764   84.3105   11.4997 O.2     1  UNL1       -0.2705
     30 H          61.5874   85.6039   13.7881 H       1  UNL1        0.1500
     31 C          63.0368   84.1026   14.3723 C.3     1  UNL1        0.1121
     32 C          62.8467   82.6227   14.2176 C.ar    1  UNL1        0.0768
     33 C          61.4664   82.0365   14.2494 C.ar    1  UNL1        0.0164
     34 C          61.2763   80.5567   14.0947 C.ar    1  UNL1        0.0029
     35 C          62.4664   79.6630   13.9082 C.ar    1  UNL1        0.0207
     36 C          63.8469   80.2492   13.8764 C.ar    1  UNL1        0.0985
     37 N          64.0370   81.7291   14.0311 N.ar    1  UNL1       -0.2465
     38 C          63.9356   84.6348   15.4488 C.3     1  UNL1        0.0257
     39 C          63.1202   86.4874   17.0777 C.3     1  UNL1        0.0001
     40 C          63.8630   86.0812   15.8393 C.3     1  UNL1        0.0020
     41 C          64.5331   87.1215   14.9916 C.3     1  UNL1        0.0001
@<TRIPOS>BOND
     1    39    40    1
     2    40    41    1
     3    40    38    1
     4    38    31    1
     5    31    27    1
     6    27    28   am
     7    28    29    2
     8    28     1    1
     9     1     2    2
    10     2     3    1
    11     3     4    2
    12     4     5    1
    13     5     6    2
    14     6     7    1
    15     7    10    1
    16    10    11   ar
    17    11    12   ar
    18    12    13   ar
    19    13    16    1
    20    17    16    1
    21    17    18    1
    22    19    18    1
    23    19    20    1
    24    20    21    1
    25    22    21    1
    26    22    23    1
    27    22    24    1
    28    24    25   am
    29    25    26    2
    30    13    14   ar
    31    14    15   ar
    32     7     8    2
    33     8     9    1
    34    31    32    1
    35    32    33   ar
    36    33    34   ar
    37    34    35   ar
    38    35    36   ar
    39    36    37   ar
    40     9     1    1
    41    37    32   ar
    42     8     4    1
    43    15    10   ar
    44    23    17    1
    45    24    19    1
    46    27    30    1
@<TRIPOS>MOLECULE
*****
 41 46 0 0 0
SMALL
GASTEIGER

@<TRIPOS>ATOM
      1 C          62.2672   85.4413    9.8270 C.2     1  UNL1        0.0357
      2 C          61.3863   85.2743    8.6245 C.2     1  UNL1        0.0021
      3 C          60.6322   86.4502    8.0781 C.2     1  UNL1        0.0205
      4 C          60.7590   87.7931    8.7343 C.2     1  UNL1        0.1007
      5 N          60.1423   89.1246    8.4229 N.2     1  UNL1       -0.1483
      6 N          60.6421   90.1145    9.4330 N.2     1  UNL1       -0.1483
      7 C          61.5677   89.3948   10.3686 C.2     1  UNL1        0.1007
      8 C          61.6399   87.9601    9.9368 C.2     1  UNL1        0.0211
      9 C          62.3940   86.7842   10.4832 C.3     1  UNL1        0.0604
     10 C          62.2936   90.0030   11.5319 C.ar    1  UNL1        0.0193
     11 C          63.2153   91.1665   11.3155 C.ar    1  UNL1        0.0047
     12 C          63.9412   91.7747   12.4788 C.ar    1  UNL1        0.0369
     13 C          63.7455   91.2194   13.8584 C.ar    1  UNL1        0.1384
     14 C          62.8238   90.0559   14.0747 C.ar    1  UNL1        0.0369
     15 C          62.0979   89.4477   12.9115 C.ar    1  UNL1        0.0047
     16 O          64.4714   91.8276   15.0216 O.3     1  UNL1       -0.4791
     17 C          65.9502   92.0655   14.9415 C.3     1  UNL1        0.1692
     18 C          66.6641   92.7385   16.0761 C.3     1  UNL1        0.0634
     19 C          68.1430   92.9764   15.9960 C.3     1  UNL1        0.0794
     20 C          69.5585   93.0050   15.5007 C.3     1  UNL1        0.0216
     21 C          69.5880   92.3652   14.1442 C.3     1  UNL1        0.0216
     22 C          68.1906   91.9413   13.8013 C.3     1  UNL1        0.0794
     23 C          66.7151   91.6304   13.7268 C.3     1  UNL1        0.0634
     24 N          67.2976   92.3190   14.9458 N.am    1  UNL1       -0.2754
     25 C          65.8187   92.0811   15.0259 C.2     1  UNL1        0.3028
     26 O          65.0538   92.5162   16.2406 O.2     1  UNL1       -0.2649
     27 N          62.5504   83.5891   11.6268 N.am    1  UNL1       -0.2975
     28 C          63.0213   84.2654   10.3735 C.2     1  UNL1        0.2424
     29 O          64.2462   83.7657    9.6665 O.2     1  UNL1       -0.2705
     30 H          61.7465   83.9171   12.0908 H       1  UNL1        0.1500
     31 C          63.3046   82.4132   12.1733 C.3     1  UNL1        0.1121
     32 C          63.0537   81.0403   11.6236 C.ar    1  UNL1        0.0768
     33 C          63.1794   80.7877   10.1504 C.ar    1  UNL1        0.0164
     34 C          62.9285   79.4147    9.6008 C.ar    1  UNL1        0.0029
     35 C          62.5521   78.2944   10.5244 C.ar    1  UNL1        0.0207
     36 C          62.4264   78.5469   11.9976 C.ar    1  UNL1        0.0985
     37 N          62.6773   79.9199   12.5473 N.ar    1  UNL1       -0.2465
     38 C          64.3095   82.6102   13.2693 C.3     1  UNL1        0.0257
     39 C          64.9509   84.7743   14.5560 C.3     1  UNL1        0.0001
     40 C          64.0397   83.5980   14.3654 C.3     1  UNL1        0.0020
     41 C          62.8588   83.4097   15.2709 C.3     1  UNL1        0.0001
@<TRIPOS>BOND
     1    39    40    1
     2    40    41    1
     3    40    38    1
     4    38    31    1
     5    31    27    1
     6    27    28   am
     7    28    29    2
     8    28     1    1
     9     1     2    2
    10     2     3    1
    11     3     4    2
    12     4     5    1
    13     5     6    2
    14     6     7    1
    15     7    10    1
    16    10    11   ar
    17    11    12   ar
    18    12    13   ar
    19    13    16    1
    20    17    16    1
    21    17    18    1
    22    19    18    1
    23    19    20    1
    24    20    21    1
    25    22    21    1
    26    22    23    1
    27    22    24    1
    28    24    25   am
    29    25    26    2
    30    13    14   ar
    31    14    15   ar
    32     7     8    2
    33     8     9    1
    34    31    32    1
    35    32    33   ar
    36    33    34   ar
    37    34    35   ar
    38    35    36   ar
    39    36    37   ar
    40     9     1    1
    41    37    32   ar
    42     8     4    1
    43    15    10   ar
    44    23    17    1
    45    24    19    1
    46    27    30    1
@<TRIPOS>MOLECULE
*****
 41 46 0 0 0
SMALL
GASTEIGER

@<TRIPOS>ATOM
      1 C          63.8066   85.4213   14.4696 C.2     1  UNL1        0.0357
      2 C          63.4069   84.7882   15.7694 C.2     1  UNL1        0.0021
      3 C          63.1302   85.6467   16.9678 C.2     1  UNL1        0.0205
      4 C          63.2530   87.1382   16.8665 C.2     1  UNL1        0.1007
      5 N          63.0450   88.2330   17.8707 N.2     1  UNL1       -0.1483
      6 N          63.3161   89.5426   17.1915 N.2     1  UNL1       -0.1483
      7 C          63.6917   89.2572   15.7675 C.2     1  UNL1        0.1007
      8 C          63.6527   87.7713   15.5667 C.2     1  UNL1        0.0211
      9 C          63.9295   86.9128   14.3683 C.3     1  UNL1        0.0604
     10 C          64.0443   90.2785   14.7271 C.ar    1  UNL1        0.0193
     11 C          65.1280   91.2801   14.9963 C.ar    1  UNL1        0.0047
     12 C          65.4806   92.3014   13.9558 C.ar    1  UNL1        0.0369
     13 C          64.7496   92.3212   12.6462 C.ar    1  UNL1        0.1384
     14 C          63.6660   91.3196   12.3770 C.ar    1  UNL1        0.0369
     15 C          63.3133   90.2983   13.4174 C.ar    1  UNL1        0.0047
     16 O          65.1023   93.3425   11.6057 O.3     1  UNL1       -0.4791
     17 C          66.2611   93.1045   10.6835 C.3     1  UNL1        0.1692
     18 C          66.5675   94.0893    9.5944 C.3     1  UNL1        0.0634
     19 C          67.7264   93.8512    8.6722 C.3     1  UNL1        0.0794
     20 C          68.9259   93.2309    8.0193 C.3     1  UNL1        0.0216
     21 C          69.2411   91.9562    8.7445 C.3     1  UNL1        0.0216
     22 C          68.2364   91.7888    9.8456 C.3     1  UNL1        0.0794
     23 C          67.1135   91.8816   10.8505 C.3     1  UNL1        0.0634
     24 N          67.3003   92.9600    9.8009 N.am    1  UNL1       -0.2754
     25 C          66.1414   93.1980   10.7231 C.2     1  UNL1        0.3028
     26 O          65.2890   94.4209   10.5562 O.2     1  UNL1       -0.2649
     27 N          63.0347   84.3925   12.2121 N.am    1  UNL1       -0.2975
     28 C          64.0834   84.5628   13.2710 C.2     1  UNL1        0.2424
     29 O          65.4089   83.8746   13.1314 O.2     1  UNL1       -0.2705
     30 H          62.1648   84.8442   12.3038 H       1  UNL1        0.1500
     31 C          63.3115   83.5340   11.0136 C.3     1  UNL1        0.1121
     32 C          63.1052   82.0503   11.0900 C.ar    1  UNL1        0.0768
     33 C          63.2474   81.2087    9.8566 C.ar    1  UNL1        0.0164
     34 C          63.0410   79.7249    9.9330 C.ar    1  UNL1        0.0029
     35 C          62.6924   79.0827   11.2430 C.ar    1  UNL1        0.0207
     36 C          62.5502   79.9243   12.4766 C.ar    1  UNL1        0.0985
     37 N          62.7566   81.4081   12.4001 N.ar    1  UNL1       -0.2465
     38 C          63.7947   84.1593    9.7386 C.3     1  UNL1        0.0257
     39 C          62.1891   86.2011    9.6794 C.3     1  UNL1        0.0001
     40 C          62.8986   85.0854    8.9709 C.3     1  UNL1        0.0020
     41 C          62.7119   84.8957    7.4947 C.3     1  UNL1        0.0001
@<TRIPOS>BOND
     1    39    40    1
     2    40    41    1
     3    40    38    1
     4    38    31    1
     5    31    27    1
     6    27    28   am
     7    28    29    2
     8    28     1    1
     9     1     2    2
    10     2     3    1
    11     3     4    2
    12     4     5    1
    13     5     6    2
    14     6     7    1
    15     7    10    1
    16    10    11   ar
    17    11    12   ar
    18    12    13   ar
    19    13    16    1
    20    17    16    1
    21    17    18    1
    22    19    18    1
    23    19    20    1
    24    20    21    1
    25    22    21    1
    26    22    23    1
    27    22    24    1
    28    24    25   am
    29    25    26    2
    30    13    14   ar
    31    14    15   ar
    32     7     8    2
    33     8     9    1
    34    31    32    1
    35    32    33   ar
    36    33    34   ar
    37    34    35   ar
    38    35    36   ar
    39    36    37   ar
    40     9     1    1
    41    37    32   ar
    42     8     4    1
    43    15    10   ar
    44    23    17    1
    45    24    19    1
    46    27    30    1
@<TRIPOS>MOLECULE
*****
 41 46 0 0 0
SMALL
GASTEIGER

@<TRIPOS>ATOM
      1 C          63.5996   85.6595   14.3279 C.2     1  UNL1        0.0357
      2 C          63.1569   84.9680   15.5832 C.2     1  UNL1        0.0021
      3 C          62.9548   85.7570   16.8428 C.2     1  UNL1        0.0205
      4 C          63.1954   87.2375   16.8471 C.2     1  UNL1        0.1007
      5 N          63.0797   88.2700   17.9291 N.2     1  UNL1       -0.1483
      6 N          63.4509   89.5997   17.3425 N.2     1  UNL1       -0.1483
      7 C          63.7960   89.3890   15.8980 C.2     1  UNL1        0.1007
      8 C          63.6381   87.9291   15.5918 C.2     1  UNL1        0.0211
      9 C          63.8402   87.1401   14.3323 C.3     1  UNL1        0.0604
     10 C          64.2239   90.4516   14.9296 C.ar    1  UNL1        0.0193
     11 C          65.2918   91.4318   15.3154 C.ar    1  UNL1        0.0047
     12 C          65.7197   92.4945   14.3470 C.ar    1  UNL1        0.0369
     13 C          65.0798   92.5769   12.9929 C.ar    1  UNL1        0.1384
     14 C          64.0119   91.5967   12.6072 C.ar    1  UNL1        0.0369
     15 C          63.5840   90.5341   13.5755 C.ar    1  UNL1        0.0047
     16 O          65.5077   93.6395   12.0246 O.3     1  UNL1       -0.4791
     17 C          66.5050   93.3184   10.9511 C.3     1  UNL1        0.1692
     18 C          66.6668   94.2391    9.7780 C.3     1  UNL1        0.0634
     19 C          67.6641   93.9180    8.7045 C.3     1  UNL1        0.0794
     20 C          68.7327   93.2267    7.9107 C.3     1  UNL1        0.0216
     21 C          69.1216   91.9782    8.6455 C.3     1  UNL1        0.0216
     22 C          68.2933   91.8978    9.8934 C.3     1  UNL1        0.0794
     23 C          67.3404   92.0766   11.0507 C.3     1  UNL1        0.0634
     24 N          67.3925   93.0966    9.9299 N.am    1  UNL1       -0.2754
     25 C          66.3953   93.4178   11.0034 C.2     1  UNL1        0.3028
     26 O          65.5599   94.6596   10.9038 O.2     1  UNL1       -0.2649
     27 N          62.8306   85.0078   11.9333 N.am    1  UNL1       -0.2975
     28 C          63.8017   84.8705   13.0683 C.2     1  UNL1        0.2424
     29 O          64.9750   83.9443   12.9436 O.2     1  UNL1       -0.2705
     30 H          62.0606   85.6157   12.0152 H       1  UNL1        0.1500
     31 C          63.0328   84.2188   10.6737 C.3     1  UNL1        0.1121
     32 C          62.4233   84.6910    9.3870 C.ar    1  UNL1        0.0768
     33 C          63.0323   84.2888    8.0766 C.ar    1  UNL1        0.0164
     34 C          62.4229   84.7611    6.7899 C.ar    1  UNL1        0.0029
     35 C          61.2044   85.6355    6.8136 C.ar    1  UNL1        0.0207
     36 C          60.5953   86.0378    8.1241 C.ar    1  UNL1        0.0985
     37 N          61.2048   85.5655    9.4108 N.ar    1  UNL1       -0.2465
     38 C          63.8443   82.9576   10.7007 C.3     1  UNL1        0.0257
     39 C          63.1227   80.5372   10.0914 C.3     1  UNL1        0.0001
     40 C          63.1993   81.6589   11.0845 C.3     1  UNL1        0.0020
     41 C          62.6310   81.4817   12.4613 C.3     1  UNL1        0.0001
@<TRIPOS>BOND
     1    39    40    1
     2    40    41    1
     3    40    38    1
     4    38    31    1
     5    31    27    1
     6    27    28   am
     7    28    29    2
     8    28     1    1
     9     1     2    2
    10     2     3    1
    11     3     4    2
    12     4     5    1
    13     5     6    2
    14     6     7    1
    15     7    10    1
    16    10    11   ar
    17    11    12   ar
    18    12    13   ar
    19    13    16    1
    20    17    16    1
    21    17    18    1
    22    19    18    1
    23    19    20    1
    24    20    21    1
    25    22    21    1
    26    22    23    1
    27    22    24    1
    28    24    25   am
    29    25    26    2
    30    13    14   ar
    31    14    15   ar
    32     7     8    2
    33     8     9    1
    34    31    32    1
    35    32    33   ar
    36    33    34   ar
    37    34    35   ar
    38    35    36   ar
    39    36    37   ar
    40     9     1    1
    41    37    32   ar
    42     8     4    1
    43    15    10   ar
    44    23    17    1
    45    24    19    1
    46    27    30    1
@<TRIPOS>MOLECULE
*****
 41 46 0 0 0
SMALL
GASTEIGER

@<TRIPOS>ATOM
      1 C          61.8324   89.5433   10.2057 C.2     1  UNL1        0.0357
      2 C          61.5619   88.2606   10.9347 C.2     1  UNL1        0.0021
      3 C          60.5743   87.2770   10.3807 C.2     1  UNL1        0.0205
      4 C          59.8571   87.5760    9.0976 C.2     1  UNL1        0.1007
      5 N          58.8374   86.8037    8.3142 N.2     1  UNL1       -0.1483
      6 N          58.4776   87.6091    7.1010 N.2     1  UNL1       -0.1483
      7 C          59.2750   88.8791    7.1346 C.2     1  UNL1        0.1007
      8 C          60.1276   88.8587    8.3686 C.2     1  UNL1        0.0211
      9 C          61.1152   89.8423    8.9226 C.3     1  UNL1        0.0604
     10 C          59.2281   89.9769    6.1135 C.ar    1  UNL1        0.0193
     11 C          60.4959   90.4623    5.4754 C.ar    1  UNL1        0.0047
     12 C          60.4490   91.5601    4.4543 C.ar    1  UNL1        0.0369
     13 C          59.1344   92.1726    4.0713 C.ar    1  UNL1        0.1384
     14 C          57.8667   91.6872    4.7094 C.ar    1  UNL1        0.0369
     15 C          57.9136   90.5894    5.7305 C.ar    1  UNL1        0.0047
     16 O          59.0875   93.2704    3.0502 O.3     1  UNL1       -0.4791
     17 C          60.0644   93.2782    1.9120 C.3     1  UNL1        0.1692
     18 C          61.1530   94.3091    1.8650 C.3     1  UNL1        0.0634
     19 C          62.1299   94.3169    0.7267 C.3     1  UNL1        0.0794
     20 C          62.8448   93.9579   -0.5421 C.3     1  UNL1        0.0216
     21 C          62.1518   92.7720   -1.1450 C.3     1  UNL1        0.0216
     22 C          61.0086   92.3981   -0.2488 C.3     1  UNL1        0.0794
     23 C          59.9527   92.2551    0.8208 C.3     1  UNL1        0.0634
     24 N          60.9951   93.3529    0.9080 N.am    1  UNL1       -0.2754
     25 C          60.0182   93.3451    2.0462 C.2     1  UNL1        0.3028
     26 O          60.1298   94.3682    3.1375 O.2     1  UNL1       -0.2649
     27 N          63.4754   90.2670   12.0837 N.am    1  UNL1       -0.2975
     28 C          62.8201   90.5270   10.7597 C.2     1  UNL1        0.2424
     29 O          63.1525   91.7705    9.9896 O.2     1  UNL1       -0.2705
     30 H          63.2572   89.4508   12.5891 H       1  UNL1        0.1500
     31 C          64.4631   91.2508   12.6377 C.3     1  UNL1        0.1121
     32 C          64.5490   91.4741   14.1185 C.ar    1  UNL1        0.0768
     33 C          63.6615   90.6991   15.0466 C.ar    1  UNL1        0.0164
     34 C          63.7474   90.9225   16.5274 C.ar    1  UNL1        0.0029
     35 C          64.7209   91.9209   17.0800 C.ar    1  UNL1        0.0207
     36 C          65.6085   92.6960   16.1519 C.ar    1  UNL1        0.0985
     37 N          65.5225   92.4726   14.6711 N.ar    1  UNL1       -0.2465
     38 C          65.3648   92.0110   11.7109 C.3     1  UNL1        0.0257
     39 C          67.7980   92.0392   12.6213 C.3     1  UNL1        0.0001
     40 C          66.5378   92.7680   12.2594 C.3     1  UNL1        0.0020
     41 C          66.4507   94.2538   12.4461 C.3     1  UNL1        0.0001
@<TRIPOS>BOND
     1    39    40    1
     2    40    41    1
     3    40    38    1
     4    38    31    1
     5    31    27    1
     6    27    28   am
     7    28    29    2
     8    28     1    1
     9     1     2    2
    10     2     3    1
    11     3     4    2
    12     4     5    1
    13     5     6    2
    14     6     7    1
    15     7    10    1
    16    10    11   ar
    17    11    12   ar
    18    12    13   ar
    19    13    16    1
    20    17    16    1
    21    17    18    1
    22    19    18    1
    23    19    20    1
    24    20    21    1
    25    22    21    1
    26    22    23    1
    27    22    24    1
    28    24    25   am
    29    25    26    2
    30    13    14   ar
    31    14    15   ar
    32     7     8    2
    33     8     9    1
    34    31    32    1
    35    32    33   ar
    36    33    34   ar
    37    34    35   ar
    38    35    36   ar
    39    36    37   ar
    40     9     1    1
    41    37    32   ar
    42     8     4    1
    43    15    10   ar
    44    23    17    1
    45    24    19    1
    46    27    30    1
@<TRIPOS>MOLECULE
*****
 41 46 0 0 0
SMALL
GASTEIGER

@<TRIPOS>ATOM
      1 C          63.8075   89.1495   12.9755 C.2     1  UNL1        0.0357
      2 C          64.3234   88.0358   13.8377 C.2     1  UNL1        0.0021
      3 C          63.8778   86.6256   13.5875 C.2     1  UNL1        0.0205
      4 C          62.9162   86.3291   12.4751 C.2     1  UNL1        0.1007
      5 N          62.3030   85.0477   11.9933 N.2     1  UNL1       -0.1483
      6 N          61.4080   85.3695   10.8334 N.2     1  UNL1       -0.1483
      7 C          61.4682   86.8497   10.5983 C.2     1  UNL1        0.1007
      8 C          62.4003   87.4428   11.6129 C.2     1  UNL1        0.0211
      9 C          62.8459   88.8530   11.8631 C.3     1  UNL1        0.0604
     10 C          60.7264   87.6045    9.5352 C.ar    1  UNL1        0.0193
     11 C          60.0851   86.8644    8.3990 C.ar    1  UNL1        0.0047
     12 C          59.3433   87.6191    7.3359 C.ar    1  UNL1        0.0369
     13 C          59.2429   89.1139    7.4089 C.ar    1  UNL1        0.1384
     14 C          59.8842   89.8540    8.5451 C.ar    1  UNL1        0.0369
     15 C          60.6260   89.0993    9.6082 C.ar    1  UNL1        0.0047
     16 O          58.5012   89.8686    6.3458 O.3     1  UNL1       -0.4791
     17 C          59.2542   90.7177    5.3649 C.3     1  UNL1        0.1692
     18 C          58.5419   91.7981    4.6064 C.3     1  UNL1        0.0634
     19 C          59.2949   92.6472    3.6256 C.3     1  UNL1        0.0794
     20 C          60.3996   93.2206    2.7884 C.3     1  UNL1        0.0216
     21 C          61.6568   92.4632    3.0980 C.3     1  UNL1        0.0216
     22 C          61.3291   91.4217    4.1265 C.3     1  UNL1        0.0794
     23 C          60.7194   90.4863    5.1427 C.3     1  UNL1        0.0634
     24 N          59.8694   91.5354    4.4525 N.am    1  UNL1       -0.2754
     25 C          59.1164   90.6863    5.4334 C.2     1  UNL1        0.3028
     26 O          57.6511   90.9177    5.6557 O.2     1  UNL1       -0.2649
     27 N          65.7109   90.9078   13.1641 N.am    1  UNL1       -0.2975
     28 C          64.2531   90.5598   13.2257 C.2     1  UNL1        0.2424
     29 O          63.2410   91.6220   13.5375 O.2     1  UNL1       -0.2705
     30 H          66.3752   90.2107   12.9595 H       1  UNL1        0.1500
     31 C          66.1565   92.3181   13.4143 C.3     1  UNL1        0.1121
     32 C          67.1732   92.6057   14.4790 C.ar    1  UNL1        0.0768
     33 C          67.6472   94.0110   14.7035 C.ar    1  UNL1        0.0164
     34 C          68.6639   94.2985   15.7682 C.ar    1  UNL1        0.0029
     35 C          69.2066   93.1808   16.6084 C.ar    1  UNL1        0.0207
     36 C          68.7327   91.7754   16.3840 C.ar    1  UNL1        0.0985
     37 N          67.7159   91.4879   15.3193 N.ar    1  UNL1       -0.2465
     38 C          65.5854   93.4408   12.5998 C.3     1  UNL1        0.0257
     39 C          66.8875   92.6099   10.5107 C.3     1  UNL1        0.0001
     40 C          66.0387   93.6468   11.1849 C.3     1  UNL1        0.0020
     41 C          65.6433   94.8898   10.4441 C.3     1  UNL1        0.0001
@<TRIPOS>BOND
     1    39    40    1
     2    40    41    1
     3    40    38    1
     4    38    31    1
     5    31    27    1
     6    27    28   am
     7    28    29    2
     8    28     1    1
     9     1     2    2
    10     2     3    1
    11     3     4    2
    12     4     5    1
    13     5     6    2
    14     6     7    1
    15     7    10    1
    16    10    11   ar
    17    11    12   ar
    18    12    13   ar
    19    13    16    1
    20    17    16    1
    21    17    18    1
    22    19    18    1
    23    19    20    1
    24    20    21    1
    25    22    21    1
    26    22    23    1
    27    22    24    1
    28    24    25   am
    29    25    26    2
    30    13    14   ar
    31    14    15   ar
    32     7     8    2
    33     8     9    1
    34    31    32    1
    35    32    33   ar
    36    33    34   ar
    37    34    35   ar
    38    35    36   ar
    39    36    37   ar
    40     9     1    1
    41    37    32   ar
    42     8     4    1
    43    15    10   ar
    44    23    17    1
    45    24    19    1
    46    27    30    1
