@<TRIPOS>MOLECULE
*****
 26 28 0 0 0
SMALL
GASTEIGER

@<TRIPOS>ATOM
      1 C          65.6461   92.1597   13.5657 C.2     1  UNL1        0.0919
      2 C          65.7586   93.0814   12.3876 C.2     1  UNL1        0.0183
      3 C          64.9885   92.7926   11.1332 C.2     1  UNL1        0.0511
      4 C          64.1058   91.5822   11.0569 C.2     1  UNL1        0.2322
      5 N          63.2331   91.0438    9.9621 N.2     1  UNL1       -0.0308
      6 C          62.5811   89.7894   10.4636 C.2     1  UNL1        0.3753
      7 N          63.0510   89.5525   11.8683 N.2     1  UNL1       -0.0347
      8 C          63.9933   90.6606   12.2349 C.2     1  UNL1        0.2191
      9 C          64.7634   90.9493   13.4893 C.3     1  UNL1        0.1226
     10 C          61.6269   88.9239    9.6953 C.ar    1  UNL1        0.0914
     11 C          60.3187   89.4856    9.2230 C.ar    1  UNL1        0.0079
     12 C          59.3645   88.6202    8.4547 C.ar    1  UNL1        0.0034
     13 C          59.7184   87.1929    8.1587 C.ar    1  UNL1        0.0372
     14 C          61.0266   86.6311    8.6310 C.ar    1  UNL1        0.1471
     15 C          61.9808   87.4966    9.3993 C.ar    1  UNL1        0.0449
     16 O          61.3805   85.2038    8.3350 O.3     1  UNL1       -0.4045
     17 C          62.1385   84.8625    7.0865 C.3     1  UNL1        0.5753
     18 F          62.8964   84.5211    5.8380 F       1  UNL1       -0.1328
     19 F          60.8496   84.5290    6.3952 F       1  UNL1       -0.1328
     20 F          63.4272   85.1959    7.7777 F       1  UNL1       -0.1328
     21 S          66.4162   92.4485   14.8201 S.O2    1  UNL1        0.0054
     22 O          67.6841   92.5303   14.0228 O.2     1  UNL1       -0.1689
     23 O          65.1483   92.3666   15.6173 O.2     1  UNL1       -0.1689
     24 C          67.1863   92.7372   16.0745 C.3     1  UNL1        0.1556
     25 C          69.3038   94.2426   16.0790 C.3     1  UNL1        0.0019
     26 C          68.6785   92.8803   16.0222 C.3     1  UNL1        0.0257
@<TRIPOS>BOND
     1    25    26    1
     2    26    24    1
     3    24    21    1
     4    21    22    2
     5    21    23    2
     6    21     1    1
     7     1     2    2
     8     2     3    1
     9     3     4    2
    10     4     5    1
    11     5     6    2
    12     6    10    1
    13    10    11   ar
    14    11    12   ar
    15    12    13   ar
    16    13    14   ar
    17    14    16    1
    18    16    17    1
    19    17    18    1
    20    17    19    1
    21    17    20    1
    22    14    15   ar
    23     6     7    1
    24     7     8    2
    25     8     9    1
    26     9     1    1
    27     8     4    1
    28    15    10   ar
@<TRIPOS>MOLECULE
*****
 26 28 0 0 0
SMALL
GASTEIGER

@<TRIPOS>ATOM
      1 C          63.2418   83.6963   12.8965 C.2     1  UNL1        0.0919
      2 C          62.6931   84.3745   11.6763 C.2     1  UNL1        0.0183
      3 C          62.7015   85.8715   11.5825 C.2     1  UNL1        0.0511
      4 C          63.2586   86.6904   12.7090 C.2     1  UNL1        0.2322
      5 N          63.3996   88.1716   12.8991 N.2     1  UNL1       -0.0308
      6 C          64.0354   88.4089   14.2368 C.2     1  UNL1        0.3753
      7 N          64.2874   87.0744   14.8735 N.2     1  UNL1       -0.0347
      8 C          63.8073   86.0123   13.9293 C.2     1  UNL1        0.2191
      9 C          63.7988   84.5152   14.0230 C.3     1  UNL1        0.1226
     10 C          64.3619   89.7461   14.8331 C.ar    1  UNL1        0.0914
     11 C          63.6722   90.1969   16.0865 C.ar    1  UNL1        0.0079
     12 C          63.9987   91.5340   16.6828 C.ar    1  UNL1        0.0034
     13 C          65.0147   92.4203   16.0256 C.ar    1  UNL1        0.0372
     14 C          65.7044   91.9695   14.7721 C.ar    1  UNL1        0.1471
     15 C          65.3779   90.6324   14.1758 C.ar    1  UNL1        0.0449
     16 O          66.7205   92.8559   14.1149 O.3     1  UNL1       -0.4045
     17 C          68.1682   92.7448   14.4914 C.3     1  UNL1        0.5753
     18 F          69.6159   92.6336   14.8679 F       1  UNL1       -0.1328
     19 F          67.9780   93.8050   15.5354 F       1  UNL1       -0.1328
     20 F          68.3583   91.6846   13.4474 F       1  UNL1       -0.1328
     21 S          63.2334   82.1993   12.9903 S.O2    1  UNL1        0.0054
     22 O          62.7220   82.1140   11.5827 O.2     1  UNL1       -0.1689
     23 O          63.7447   82.2846   14.3978 O.2     1  UNL1       -0.1689
     24 C          63.2249   80.7023   13.0840 C.3     1  UNL1        0.1556
     25 C          60.8356   80.7227   14.1042 C.3     1  UNL1        0.0019
     26 C          61.9608   79.9805   13.4461 C.3     1  UNL1        0.0257
@<TRIPOS>BOND
     1    25    26    1
     2    26    24    1
     3    24    21    1
     4    21    22    2
     5    21    23    2
     6    21     1    1
     7     1     2    2
     8     2     3    1
     9     3     4    2
    10     4     5    1
    11     5     6    2
    12     6    10    1
    13    10    11   ar
    14    11    12   ar
    15    12    13   ar
    16    13    14   ar
    17    14    16    1
    18    16    17    1
    19    17    18    1
    20    17    19    1
    21    17    20    1
    22    14    15   ar
    23     6     7    1
    24     7     8    2
    25     8     9    1
    26     9     1    1
    27     8     4    1
    28    15    10   ar
@<TRIPOS>MOLECULE
*****
 26 28 0 0 0
SMALL
GASTEIGER

@<TRIPOS>ATOM
      1 C          65.4013   91.9268   13.4841 C.2     1  UNL1        0.0919
      2 C          65.5431   92.8499   12.3104 C.2     1  UNL1        0.0183
      3 C          64.7803   92.5798   11.0473 C.2     1  UNL1        0.0511
      4 C          63.8759   91.3865   10.9580 C.2     1  UNL1        0.2322
      5 N          63.0042   90.8682    9.8528 N.2     1  UNL1       -0.0308
      6 C          62.3237   89.6247   10.3434 C.2     1  UNL1        0.3753
      7 N          62.7748   89.3745   11.7519 N.2     1  UNL1       -0.0347
      8 C          63.7341   90.4634   12.1317 C.2     1  UNL1        0.2191
      9 C          64.4969   90.7335   13.3948 C.3     1  UNL1        0.1226
     10 C          61.3611   88.7798    9.5626 C.ar    1  UNL1        0.0914
     11 C          61.3679   87.2888    9.7268 C.ar    1  UNL1        0.0079
     12 C          60.4054   86.4439    8.9460 C.ar    1  UNL1        0.0034
     13 C          59.4361   87.0900    8.0011 C.ar    1  UNL1        0.0372
     14 C          59.4293   88.5810    7.8370 C.ar    1  UNL1        0.1471
     15 C          60.3918   89.4259    8.6177 C.ar    1  UNL1        0.0449
     16 O          58.4598   89.2270    6.8920 O.3     1  UNL1       -0.4045
     17 C          58.9500   90.2104    5.8709 C.3     1  UNL1        0.5753
     18 F          59.4402   91.1938    4.8499 F       1  UNL1       -0.1328
     19 F          60.2987   89.5539    5.8862 F       1  UNL1       -0.1328
     20 F          57.6014   90.8669    5.8557 F       1  UNL1       -0.1328
     21 S          66.1641   92.1969   14.7471 S.O2    1  UNL1        0.0054
     22 O          64.8725   92.3632   15.4915 O.2     1  UNL1       -0.1689
     23 O          67.4557   92.0306   14.0027 O.2     1  UNL1       -0.1689
     24 C          66.9268   92.4670   16.0102 C.3     1  UNL1        0.1556
     25 C          69.0110   94.0155   16.1027 C.3     1  UNL1        0.0019
     26 C          68.4154   92.6458   15.9637 C.3     1  UNL1        0.0257
@<TRIPOS>BOND
     1    25    26    1
     2    26    24    1
     3    24    21    1
     4    21    22    2
     5    21    23    2
     6    21     1    1
     7     1     2    2
     8     2     3    1
     9     3     4    2
    10     4     5    1
    11     5     6    2
    12     6    10    1
    13    10    11   ar
    14    11    12   ar
    15    12    13   ar
    16    13    14   ar
    17    14    16    1
    18    16    17    1
    19    17    18    1
    20    17    19    1
    21    17    20    1
    22    14    15   ar
    23     6     7    1
    24     7     8    2
    25     8     9    1
    26     9     1    1
    27     8     4    1
    28    15    10   ar
@<TRIPOS>MOLECULE
*****
 26 28 0 0 0
SMALL
GASTEIGER

@<TRIPOS>ATOM
      1 C          61.1685   87.4863    9.1213 C.2     1  UNL1        0.0919
      2 C          60.3746   88.7458    8.9392 C.2     1  UNL1        0.0183
      3 C          60.5841   89.9053    9.8675 C.2     1  UNL1        0.0511
      4 C          61.5875   89.8053   10.9779 C.2     1  UNL1        0.2322
      5 N          62.0082   90.7762   12.0411 N.2     1  UNL1       -0.0308
      6 C          63.0622   90.1167   12.8803 C.2     1  UNL1        0.3753
      7 N          63.2929   88.7382   12.3358 N.2     1  UNL1       -0.0347
      8 C          62.3815   88.5457   11.1600 C.2     1  UNL1        0.2191
      9 C          62.1720   87.3862   10.2317 C.3     1  UNL1        0.1226
     10 C          63.7625   90.7284   14.0574 C.ar    1  UNL1        0.0914
     11 C          63.2192   90.5271   15.4410 C.ar    1  UNL1        0.0079
     12 C          63.9194   91.1388   16.6180 C.ar    1  UNL1        0.0034
     13 C          65.1629   91.9517   16.4115 C.ar    1  UNL1        0.0372
     14 C          65.7062   92.1530   15.0279 C.ar    1  UNL1        0.1471
     15 C          65.0060   91.5414   13.8508 C.ar    1  UNL1        0.0449
     16 O          66.9498   92.9660   14.8214 O.3     1  UNL1       -0.4045
     17 C          68.1767   92.6799   15.6355 C.3     1  UNL1        0.5753
     18 F          69.4036   92.3937   16.4496 F       1  UNL1       -0.1328
     19 F          68.3284   94.1446   15.9216 F       1  UNL1       -0.1328
     20 F          68.0250   91.2153   15.3494 F       1  UNL1       -0.1328
     21 S          60.9591   86.3268    8.1930 S.O2    1  UNL1        0.0054
     22 O          59.5646   86.8032    7.9127 O.2     1  UNL1       -0.1689
     23 O          62.3535   85.8504    8.4734 O.2     1  UNL1       -0.1689
     24 C          60.7496   85.1673    7.2648 C.3     1  UNL1        0.1556
     25 C          61.7578   84.1689    5.0884 C.3     1  UNL1        0.0019
     26 C          61.9136   84.5812    6.5222 C.3     1  UNL1        0.0257
@<TRIPOS>BOND
     1    25    26    1
     2    26    24    1
     3    24    21    1
     4    21    22    2
     5    21    23    2
     6    21     1    1
     7     1     2    2
     8     2     3    1
     9     3     4    2
    10     4     5    1
    11     5     6    2
    12     6    10    1
    13    10    11   ar
    14    11    12   ar
    15    12    13   ar
    16    13    14   ar
    17    14    16    1
    18    16    17    1
    19    17    18    1
    20    17    19    1
    21    17    20    1
    22    14    15   ar
    23     6     7    1
    24     7     8    2
    25     8     9    1
    26     9     1    1
    27     8     4    1
    28    15    10   ar
@<TRIPOS>MOLECULE
*****
 26 28 0 0 0
SMALL
GASTEIGER

@<TRIPOS>ATOM
      1 C          65.0543   91.1626   13.8522 C.2     1  UNL1        0.0919
      2 C          64.1740   91.2340   12.6398 C.2     1  UNL1        0.0183
      3 C          63.4606   90.0057   12.1576 C.2     1  UNL1        0.0511
      4 C          63.6275   88.7062   12.8878 C.2     1  UNL1        0.2322
      5 N          63.0554   87.3402   12.6493 N.2     1  UNL1       -0.0308
      6 C          63.5822   86.4246   13.7144 C.2     1  UNL1        0.3753
      7 N          64.4798   87.2247   14.6111 N.2     1  UNL1       -0.0347
      8 C          64.5078   88.6348   14.1002 C.2     1  UNL1        0.2191
      9 C          65.2212   89.8630   14.5824 C.3     1  UNL1        0.1226
     10 C          63.2666   84.9651   13.8575 C.ar    1  UNL1        0.0914
     11 C          62.3286   84.5026   14.9328 C.ar    1  UNL1        0.0079
     12 C          62.0130   83.0432   15.0760 C.ar    1  UNL1        0.0034
     13 C          62.6355   82.0464   14.1439 C.ar    1  UNL1        0.0372
     14 C          63.5735   82.5089   13.0687 C.ar    1  UNL1        0.1471
     15 C          63.8891   83.9683   12.9255 C.ar    1  UNL1        0.0449
     16 O          64.1960   81.5120   12.1366 O.3     1  UNL1       -0.4045
     17 C          63.4441   81.0469   10.9249 C.3     1  UNL1        0.5753
     18 F          62.6922   80.5818    9.7132 F       1  UNL1       -0.1328
     19 F          64.1287   82.0946   10.0980 F       1  UNL1       -0.1328
     20 F          62.7596   79.9992   11.7518 F       1  UNL1       -0.1328
     21 S          65.7677   92.3908   14.3344 S.O2    1  UNL1        0.0054
     22 O          64.9621   92.3621   15.5994 O.2     1  UNL1       -0.1689
     23 O          66.5733   92.4196   13.0694 O.2     1  UNL1       -0.1689
     24 C          66.4811   93.6191   14.8167 C.3     1  UNL1        0.1556
     25 C          68.2434   92.1289   16.0098 C.3     1  UNL1        0.0019
     26 C          67.6989   93.4877   15.6824 C.3     1  UNL1        0.0257
@<TRIPOS>BOND
     1    25    26    1
     2    26    24    1
     3    24    21    1
     4    21    22    2
     5    21    23    2
     6    21     1    1
     7     1     2    2
     8     2     3    1
     9     3     4    2
    10     4     5    1
    11     5     6    2
    12     6    10    1
    13    10    11   ar
    14    11    12   ar
    15    12    13   ar
    16    13    14   ar
    17    14    16    1
    18    16    17    1
    19    17    18    1
    20    17    19    1
    21    17    20    1
    22    14    15   ar
    23     6     7    1
    24     7     8    2
    25     8     9    1
    26     9     1    1
    27     8     4    1
    28    15    10   ar
@<TRIPOS>MOLECULE
*****
 26 28 0 0 0
SMALL
GASTEIGER

@<TRIPOS>ATOM
      1 C          62.0098   86.3300    9.8683 C.2     1  UNL1        0.0919
      2 C          62.3873   85.2499   10.8382 C.2     1  UNL1        0.0183
      3 C          62.9804   85.6099   12.1681 C.2     1  UNL1        0.0511
      4 C          63.1959   87.0500   12.5281 C.2     1  UNL1        0.2322
      5 N          63.7565   87.7046   13.7557 N.2     1  UNL1       -0.0308
      6 C          63.7255   89.1894   13.5445 C.2     1  UNL1        0.3753
      7 N          63.1456   89.4524   12.1864 N.2     1  UNL1       -0.0347
      8 C          62.8183   88.1301   11.5582 C.2     1  UNL1        0.2191
      9 C          62.2253   87.7701   10.2283 C.3     1  UNL1        0.1226
     10 C          64.1923   90.2287   14.5202 C.ar    1  UNL1        0.0914
     11 C          63.4591   90.4261   15.8138 C.ar    1  UNL1        0.0079
     12 C          63.9259   91.4653   16.7895 C.ar    1  UNL1        0.0034
     13 C          65.1259   92.3072   16.4716 C.ar    1  UNL1        0.0372
     14 C          65.8591   92.1098   15.1780 C.ar    1  UNL1        0.1471
     15 C          65.3923   91.0706   14.2023 C.ar    1  UNL1        0.0449
     16 O          67.0592   92.9518   14.8601 O.3     1  UNL1       -0.4045
     17 C          68.2894   92.8566   15.7130 C.3     1  UNL1        0.5753
     18 F          69.5196   92.7613   16.5659 F       1  UNL1       -0.1328
     19 F          68.3857   94.3533   15.7412 F       1  UNL1       -0.1328
     20 F          68.1931   91.3600   15.6849 F       1  UNL1       -0.1328
     21 S          61.4167   85.9700    8.5384 S.O2    1  UNL1        0.0054
     22 O          60.1390   86.6555    8.9226 O.2     1  UNL1       -0.1689
     23 O          62.6944   85.2845    8.1542 O.2     1  UNL1       -0.1689
     24 C          60.8236   85.6100    7.2085 C.3     1  UNL1        0.1556
     25 C          61.9757   84.4025    5.2173 C.3     1  UNL1        0.0019
     26 C          61.2370   84.3423    6.5214 C.3     1  UNL1        0.0257
@<TRIPOS>BOND
     1    25    26    1
     2    26    24    1
     3    24    21    1
     4    21    22    2
     5    21    23    2
     6    21     1    1
     7     1     2    2
     8     2     3    1
     9     3     4    2
    10     4     5    1
    11     5     6    2
    12     6    10    1
    13    10    11   ar
    14    11    12   ar
    15    12    13   ar
    16    13    14   ar
    17    14    16    1
    18    16    17    1
    19    17    18    1
    20    17    19    1
    21    17    20    1
    22    14    15   ar
    23     6     7    1
    24     7     8    2
    25     8     9    1
    26     9     1    1
    27     8     4    1
    28    15    10   ar
@<TRIPOS>MOLECULE
*****
 26 28 0 0 0
SMALL
GASTEIGER

@<TRIPOS>ATOM
      1 C          63.5192   83.0498   12.7027 C.2     1  UNL1        0.0919
      2 C          63.6704   82.6203   14.1319 C.2     1  UNL1        0.0183
      3 C          63.8438   83.6488   15.2099 C.2     1  UNL1        0.0511
      4 C          63.8660   85.1069   14.8587 C.2     1  UNL1        0.2322
      5 N          64.0201   86.3396   15.6993 N.2     1  UNL1       -0.0308
      6 C          63.9642   87.5310   14.7897 C.2     1  UNL1        0.3753
      7 N          63.7755   87.0347   13.3868 N.2     1  UNL1       -0.0347
      8 C          63.7148   85.5365   13.4295 C.2     1  UNL1        0.2191
      9 C          63.5414   84.5079   12.3515 C.3     1  UNL1        0.1226
     10 C          64.0771   88.9668   15.2093 C.ar    1  UNL1        0.0914
     11 C          63.2635   89.4777   16.3613 C.ar    1  UNL1        0.0079
     12 C          63.3764   90.9133   16.7809 C.ar    1  UNL1        0.0034
     13 C          64.3029   91.8380   16.0486 C.ar    1  UNL1        0.0372
     14 C          65.1166   91.3272   14.8967 C.ar    1  UNL1        0.1471
     15 C          65.0037   89.8915   14.4770 C.ar    1  UNL1        0.0449
     16 O          66.0432   92.2520   14.1644 O.3     1  UNL1       -0.4045
     17 C          67.0822   93.0259   14.9202 C.3     1  UNL1        0.5753
     18 F          68.1213   93.7999   15.6760 F       1  UNL1       -0.1328
     19 F          66.5726   94.3006   14.3155 F       1  UNL1       -0.1328
     20 F          67.5918   91.7513   15.5248 F       1  UNL1       -0.1328
     21 S          63.3458   82.0213   11.6247 S.O2    1  UNL1        0.0054
     22 O          64.6332   82.4642   10.9951 O.2     1  UNL1       -0.1689
     23 O          62.0584   81.5784   12.2544 O.2     1  UNL1       -0.1689
     24 C          63.1725   80.9927   10.5468 C.3     1  UNL1        0.1556
     25 C          62.8250   78.5130    9.8541 C.3     1  UNL1        0.0019
     26 C          62.8172   79.5808   10.9075 C.3     1  UNL1        0.0257
@<TRIPOS>BOND
     1    25    26    1
     2    26    24    1
     3    24    21    1
     4    21    22    2
     5    21    23    2
     6    21     1    1
     7     1     2    2
     8     2     3    1
     9     3     4    2
    10     4     5    1
    11     5     6    2
    12     6    10    1
    13    10    11   ar
    14    11    12   ar
    15    12    13   ar
    16    13    14   ar
    17    14    16    1
    18    16    17    1
    19    17    18    1
    20    17    19    1
    21    17    20    1
    22    14    15   ar
    23     6     7    1
    24     7     8    2
    25     8     9    1
    26     9     1    1
    27     8     4    1
    28    15    10   ar
@<TRIPOS>MOLECULE
*****
 26 28 0 0 0
SMALL
GASTEIGER

@<TRIPOS>ATOM
      1 C          62.8764   83.6501   14.0295 C.2     1  UNL1        0.0919
      2 C          63.3870   83.8820   15.4207 C.2     1  UNL1        0.0183
      3 C          63.8955   85.2364   15.8170 C.2     1  UNL1        0.0511
      4 C          63.8934   86.3589   14.8220 C.2     1  UNL1        0.2322
      5 N          64.3293   87.7906   14.9232 N.2     1  UNL1       -0.0308
      6 C          64.0881   88.4435   13.5945 C.2     1  UNL1        0.3753
      7 N          63.5032   87.4154   12.6721 N.2     1  UNL1       -0.0347
      8 C          63.3829   86.1270   13.4308 C.2     1  UNL1        0.2191
      9 C          62.8744   84.7726   13.0346 C.3     1  UNL1        0.1226
     10 C          64.3806   89.8736   13.2488 C.ar    1  UNL1        0.0914
     11 C          63.8634   90.4563   11.9670 C.ar    1  UNL1        0.0079
     12 C          64.1558   91.8863   11.6213 C.ar    1  UNL1        0.0034
     13 C          64.9654   92.7337   12.5575 C.ar    1  UNL1        0.0372
     14 C          65.4826   92.1510   13.8393 C.ar    1  UNL1        0.1471
     15 C          65.1902   90.7210   14.1850 C.ar    1  UNL1        0.0449
     16 O          66.2922   92.9985   14.7755 O.3     1  UNL1       -0.4045
     17 C          67.5967   92.4877   15.3115 C.3     1  UNL1        0.5753
     18 F          68.9012   91.9768   15.8475 F       1  UNL1       -0.1328
     19 F          68.0820   92.2575   13.9109 F       1  UNL1       -0.1328
     20 F          67.1113   92.7178   16.7120 F       1  UNL1       -0.1328
     21 S          62.3679   82.2957   13.6332 S.O2    1  UNL1        0.0054
     22 O          62.3498   81.8808   15.0746 O.2     1  UNL1       -0.1689
     23 O          62.3860   82.7106   12.1919 O.2     1  UNL1       -0.1689
     24 C          61.8593   80.9413   13.2370 C.3     1  UNL1        0.1556
     25 C          59.4988   80.3590   14.1527 C.3     1  UNL1        0.0019
     26 C          60.9858   80.1638   14.1763 C.3     1  UNL1        0.0257
@<TRIPOS>BOND
     1    25    26    1
     2    26    24    1
     3    24    21    1
     4    21    22    2
     5    21    23    2
     6    21     1    1
     7     1     2    2
     8     2     3    1
     9     3     4    2
    10     4     5    1
    11     5     6    2
    12     6    10    1
    13    10    11   ar
    14    11    12   ar
    15    12    13   ar
    16    13    14   ar
    17    14    16    1
    18    16    17    1
    19    17    18    1
    20    17    19    1
    21    17    20    1
    22    14    15   ar
    23     6     7    1
    24     7     8    2
    25     8     9    1
    26     9     1    1
    27     8     4    1
    28    15    10   ar
@<TRIPOS>MOLECULE
*****
 26 28 0 0 0
SMALL
GASTEIGER

@<TRIPOS>ATOM
      1 C          63.2163   85.6726   15.5166 C.2     1  UNL1        0.0919
      2 C          62.7943   86.3404   16.7917 C.2     1  UNL1        0.0183
      3 C          63.0555   87.8036   16.9941 C.2     1  UNL1        0.0511
      4 C          63.7386   88.5989   15.9214 C.2     1  UNL1        0.2322
      5 N          64.1267   90.0454   15.8376 N.2     1  UNL1       -0.0308
      6 C          64.7886   90.2716   14.5106 C.2     1  UNL1        0.3753
      7 N          64.8095   88.9649   13.7743 N.2     1  UNL1       -0.0347
      8 C          64.1606   87.9311   14.6463 C.2     1  UNL1        0.2191
      9 C          63.8994   86.4680   14.4439 C.3     1  UNL1        0.1226
     10 C          65.3338   91.5756   14.0081 C.ar    1  UNL1        0.0914
     11 C          66.0549   92.4981   14.9457 C.ar    1  UNL1        0.0079
     12 C          66.6000   93.8020   14.4433 C.ar    1  UNL1        0.0034
     13 C          66.4242   94.1835   13.0034 C.ar    1  UNL1        0.0372
     14 C          65.7031   93.2610   12.0658 C.ar    1  UNL1        0.1471
     15 C          65.1579   91.9570   12.5682 C.ar    1  UNL1        0.0449
     16 O          65.5272   93.6425   10.6258 O.3     1  UNL1       -0.4045
     17 C          66.7253   93.7734    9.7329 C.3     1  UNL1        0.5753
     18 F          67.9234   93.9043    8.8400 F       1  UNL1       -0.1328
     19 F          66.3257   95.1811    9.4031 F       1  UNL1       -0.1328
     20 F          67.1249   92.3658   10.0627 F       1  UNL1       -0.1328
     21 S          62.9551   84.2095   15.3142 S.O2    1  UNL1        0.0054
     22 O          64.4299   83.9398   15.3609 O.2     1  UNL1       -0.1689
     23 O          61.4803   84.4792   15.2675 O.2     1  UNL1       -0.1689
     24 C          62.6940   82.7463   15.1117 C.3     1  UNL1        0.1556
     25 C          62.3904   80.7267   13.5058 C.3     1  UNL1        0.0019
     26 C          62.8190   82.1444   13.7435 C.3     1  UNL1        0.0257
@<TRIPOS>BOND
     1    25    26    1
     2    26    24    1
     3    24    21    1
     4    21    22    2
     5    21    23    2
     6    21     1    1
     7     1     2    2
     8     2     3    1
     9     3     4    2
    10     4     5    1
    11     5     6    2
    12     6    10    1
    13    10    11   ar
    14    11    12   ar
    15    12    13   ar
    16    13    14   ar
    17    14    16    1
    18    16    17    1
    19    17    18    1
    20    17    19    1
    21    17    20    1
    22    14    15   ar
    23     6     7    1
    24     7     8    2
    25     8     9    1
    26     9     1    1
    27     8     4    1
    28    15    10   ar
