@<TRIPOS>MOLECULE
*****
 43 46 0 0 0
SMALL
GASTEIGER

@<TRIPOS>ATOM
      1 C          63.6031   89.8028   12.6757 C.3     1  UNL1        0.1085
      2 O          63.4660   89.2864   11.2741 O.3     1  UNL1       -0.3826
      3 H          63.3322   90.0309   10.6669 H       1  UNL1        0.2107
      4 C          63.7741   88.3991   13.1761 C.3     1  UNL1        0.0484
      5 C          64.5063   88.1447   14.4603 C.3     1  UNL1        0.0061
      6 C          64.6772   86.7410   14.9608 C.3     1  UNL1        0.0217
      7 C          64.1160   85.5917   14.1770 C.3     1  UNL1        0.0934
      8 N          63.3839   85.8462   12.8928 N.am    1  UNL1       -0.2795
      9 C          62.8226   84.6969   12.1090 C.2     1  UNL1        0.2252
     10 O          62.0905   84.9513   10.8248 O.2     1  UNL1       -0.2749
     11 C          63.2129   87.2498   12.3924 C.3     1  UNL1        0.0960
     12 C          62.9936   83.2932   12.6095 C.3     1  UNL1        0.0781
     13 C          64.2830   82.5290   12.6680 C.3     1  UNL1        0.0105
     14 C          63.9915   81.1708   13.2340 C.3     1  UNL1        0.0162
     15 C          62.5220   81.0956   13.5252 C.3     1  UNL1        0.0545
     16 C          61.9053   82.4073   13.1393 C.3     1  UNL1        0.0248
     17 N          61.7966   79.9158   14.1013 N.3     1  UNL1       -0.2974
     18 C          60.3004   79.9339   14.2071 C.3     1  UNL1        0.0858
     19 H          62.1570   79.7811   15.0459 H       1  UNL1        0.1232
     20 C          64.8553   91.2606   14.4241 C.ar    1  UNL1        0.0088
     21 C          64.9924   91.7770   15.8257 C.ar    1  UNL1        0.0574
     22 CL         66.1075   92.7185   16.1724 Cl      1  UNL1       -0.0823
     23 C          64.0144   91.3519   16.8807 C.ar    1  UNL1        0.0114
     24 C          62.8993   90.4105   16.5340 C.ar    1  UNL1        0.0006
     25 C          62.7622   89.8941   15.1323 C.ar    1  UNL1       -0.0020
     26 C          63.7402   90.3192   14.0774 C.ar    1  UNL1        0.0026
     27 C          66.3877   93.0704   11.2418 C.ar    1  UNL1       -0.0222
     28 C          67.7891   92.5359   11.2592 C.ar    1  UNL1       -0.0043
     29 C          68.2126   91.5764   12.3315 C.ar    1  UNL1       -0.0003
     30 C          67.2347   91.1513   13.3865 C.ar    1  UNL1       -0.0000
     31 C          65.8333   91.6857   13.3691 C.ar    1  UNL1        0.0003
     32 C          65.4098   92.6453   12.2968 C.ar    1  UNL1       -0.0042
     33 C          66.9982   94.7783    9.3817 C.3     1  UNL1        0.0050
     34 C          65.9642   94.0299   10.1695 C.3     1  UNL1        0.0264
     35 C          63.4321   91.2064   12.1753 C.3     1  UNL1        0.0329
     36 C          62.6188   91.4694   10.9427 C.3     1  UNL1        0.0241
     37 C          61.2213   90.9345   10.8379 C.3     1  UNL1        0.0928
     38 N          60.8850   89.9150    9.7903 N.am    1  UNL1       -0.2707
     39 C          60.2589   88.6109   10.1865 C.2     1  UNL1        0.4017
     40 O          59.9690   88.3261   11.6305 O.2     1  UNL1       -0.2264
     41 H          61.0752   90.1019    8.8426 H       1  UNL1        0.1527
     42 O          59.9225   87.5914    9.1388 O.3     1  UNL1       -0.4306
     43 C          59.3843   88.0315    7.8096 C.3     1  UNL1        0.2573
@<TRIPOS>BOND
     1    33    34    1
     2    34    27    1
     3    27    28   ar
     4    28    29   ar
     5    29    30   ar
     6    30    31   ar
     7    31    20    1
     8    20    21   ar
     9    21    22    1
    10    21    23   ar
    11    23    24   ar
    12    24    25   ar
    13    25    26   ar
    14    26     1    1
    15     1     2    1
    16     1    35    1
    17    35    36    1
    18    36    37    1
    19    37    38    1
    20    38    39   am
    21    39    40    2
    22    39    42    1
    23    42    43    1
    24     4     1    1
    25     4     5    1
    26     5     6    1
    27     6     7    1
    28     7     8    1
    29     8     9   am
    30     9    10    2
    31    12     9    1
    32    12    13    1
    33    13    14    1
    34    14    15    1
    35    15    17    1
    36    17    18    1
    37    15    16    1
    38     8    11    1
    39    31    32   ar
    40    32    27   ar
    41    26    20   ar
    42    11     4    1
    43    16    12    1
    44     2     3    1
    45    38    41    1
    46    17    19    1
@<TRIPOS>MOLECULE
*****
 43 46 0 0 0
SMALL
GASTEIGER

@<TRIPOS>ATOM
      1 C          63.0630   88.5622   12.4506 C.3     1  UNL1        0.1085
      2 O          64.4739   88.3922   12.9305 O.3     1  UNL1       -0.3826
      3 H          64.5408   87.5799   13.4564 H       1  UNL1        0.2107
      4 C          63.4520   89.8344   11.7577 C.3     1  UNL1        0.0484
      5 C          62.8340   90.1887   10.4376 C.3     1  UNL1        0.0061
      6 C          63.2231   91.4610    9.7448 C.3     1  UNL1        0.0217
      7 C          64.2300   92.3789   10.3720 C.3     1  UNL1        0.0934
      8 N          64.8479   92.0246   11.6921 N.am    1  UNL1       -0.2795
      9 C          65.8549   92.9427   12.3193 C.2     1  UNL1        0.2252
     10 O          66.4729   92.5884   13.6394 O.2     1  UNL1       -0.2749
     11 C          64.4590   90.7524   12.3849 C.3     1  UNL1        0.0960
     12 C          66.2439   94.2149   11.6264 C.3     1  UNL1        0.0781
     13 C          66.0990   95.6009   12.1813 C.3     1  UNL1        0.0105
     14 C          66.6117   96.5671   11.1547 C.3     1  UNL1        0.0162
     15 C          67.0734   95.7782    9.9655 C.3     1  UNL1        0.0545
     16 C          66.8461   94.3244   10.2570 C.3     1  UNL1        0.0248
     17 N          67.6595   96.3437    8.7059 N.3     1  UNL1       -0.2974
     18 C          66.7570   96.8546    7.6222 C.3     1  UNL1        0.0858
     19 H          68.2309   95.6078    8.2907 H       1  UNL1        0.1232
     20 C          61.0947   87.8011   10.9351 C.ar    1  UNL1        0.0088
     21 C          59.6838   87.9711   10.4551 C.ar    1  UNL1        0.0574
     22 CL         59.1265   87.0399    9.4196 Cl      1  UNL1       -0.0823
     23 C          58.8301   89.0724   11.0107 C.ar    1  UNL1        0.0114
     24 C          59.3874   90.0036   12.0462 C.ar    1  UNL1        0.0006
     25 C          60.7984   89.8335   12.5262 C.ar    1  UNL1       -0.0020
     26 C          61.6520   88.7323   11.9706 C.ar    1  UNL1        0.0026
     27 C          62.9681   84.3196   10.5899 C.ar    1  UNL1       -0.0222
     28 C          63.6556   84.4974    9.2686 C.ar    1  UNL1       -0.0043
     29 C          63.4895   85.7765    8.5029 C.ar    1  UNL1       -0.0003
     30 C          62.6358   86.8777    9.0583 C.ar    1  UNL1       -0.0000
     31 C          61.9484   86.6998   10.3796 C.ar    1  UNL1        0.0003
     32 C          62.1145   85.4208   11.1453 C.ar    1  UNL1       -0.0042
     33 C          64.5081   82.5373   11.6862 C.3     1  UNL1        0.0050
     34 C          63.1343   83.0405   11.3556 C.3     1  UNL1        0.0264
     35 C          62.6740   87.2900   13.1435 C.3     1  UNL1        0.0329
     36 C          63.7203   86.4529   13.8175 C.3     1  UNL1        0.0241
     37 C          63.3283   85.4885   14.8974 C.3     1  UNL1        0.0928
     38 N          62.2805   84.4489   14.6305 N.am    1  UNL1       -0.2707
     39 C          62.5998   82.9959   14.8214 C.2     1  UNL1        0.4017
     40 O          63.9670   82.5822   15.2793 O.2     1  UNL1       -0.2264
     41 H          61.3831   84.7204   14.3299 H       1  UNL1        0.1527
     42 O          61.5519   81.9563   14.5545 O.3     1  UNL1       -0.4306
     43 C          61.9117   80.7008   13.8166 C.3     1  UNL1        0.2573
@<TRIPOS>BOND
     1    33    34    1
     2    34    27    1
     3    27    28   ar
     4    28    29   ar
     5    29    30   ar
     6    30    31   ar
     7    31    20    1
     8    20    21   ar
     9    21    22    1
    10    21    23   ar
    11    23    24   ar
    12    24    25   ar
    13    25    26   ar
    14    26     1    1
    15     1     2    1
    16     1    35    1
    17    35    36    1
    18    36    37    1
    19    37    38    1
    20    38    39   am
    21    39    40    2
    22    39    42    1
    23    42    43    1
    24     4     1    1
    25     4     5    1
    26     5     6    1
    27     6     7    1
    28     7     8    1
    29     8     9   am
    30     9    10    2
    31    12     9    1
    32    12    13    1
    33    13    14    1
    34    14    15    1
    35    15    17    1
    36    17    18    1
    37    15    16    1
    38     8    11    1
    39    31    32   ar
    40    32    27   ar
    41    26    20   ar
    42    11     4    1
    43    16    12    1
    44     2     3    1
    45    38    41    1
    46    17    19    1
@<TRIPOS>MOLECULE
*****
 43 46 0 0 0
SMALL
GASTEIGER

@<TRIPOS>ATOM
      1 C          60.7434   94.7281    1.3442 C.3     1  UNL1        0.1085
      2 O          59.4298   95.0254    2.0045 O.3     1  UNL1       -0.3826
      3 H          59.0131   95.7849    1.5681 H       1  UNL1        0.2107
      4 C          60.9624   93.5875    2.2933 C.3     1  UNL1        0.0484
      5 C          62.2755   92.8625    2.3044 C.3     1  UNL1        0.0061
      6 C          62.4945   91.7218    3.2537 C.3     1  UNL1        0.0217
      7 C          61.4004   91.3062    4.1917 C.3     1  UNL1        0.0934
      8 N          60.0872   92.0311    4.1807 N.am    1  UNL1       -0.2795
      9 C          58.9931   91.6154    5.1188 C.2     1  UNL1        0.2252
     10 O          57.6799   92.3404    5.1078 O.2     1  UNL1       -0.2749
     11 C          59.8682   93.1718    3.2315 C.3     1  UNL1        0.0960
     12 C          59.2121   90.4748    6.0680 C.3     1  UNL1        0.0781
     13 C          60.0700   90.5037    7.2981 C.3     1  UNL1        0.0105
     14 C          59.9997   89.1517    7.9441 C.3     1  UNL1        0.0162
     15 C          59.0984   88.2873    7.1132 C.3     1  UNL1        0.0545
     16 C          58.6116   89.1050    5.9537 C.3     1  UNL1        0.0248
     17 N          58.7458   86.8563    7.3927 N.3     1  UNL1       -0.2974
     18 C          59.8319   85.8465    7.6178 C.3     1  UNL1        0.0858
     19 H          58.1980   86.5274    6.5977 H       1  UNL1        0.1232
     20 C          62.0873   93.7661   -0.6605 C.ar    1  UNL1        0.0088
     21 C          63.4008   93.4688   -1.3208 C.ar    1  UNL1        0.0574
     22 CL         63.4310   92.8042   -2.6652 Cl      1  UNL1       -0.0823
     23 C          64.6843   93.8362   -0.6368 C.ar    1  UNL1        0.0114
     24 C          64.6541   94.5008    0.7076 C.ar    1  UNL1        0.0006
     25 C          63.3404   94.7981    1.3679 C.ar    1  UNL1       -0.0020
     26 C          62.0571   94.4308    0.6839 C.ar    1  UNL1        0.0026
     27 C          59.2007   93.6008   -3.3790 C.ar    1  UNL1       -0.0222
     28 C          58.2370   92.6642   -2.7126 C.ar    1  UNL1       -0.0043
     29 C          58.5567   92.0950   -1.3622 C.ar    1  UNL1       -0.0003
     30 C          59.8401   92.4622   -0.6781 C.ar    1  UNL1       -0.0000
     31 C          60.8038   93.3988   -1.3445 C.ar    1  UNL1        0.0003
     32 C          60.4841   93.9681   -2.6950 C.ar    1  UNL1       -0.0042
     33 C          57.5800   93.8341   -5.3961 C.3     1  UNL1        0.0050
     34 C          58.8810   94.1700   -4.7295 C.3     1  UNL1        0.0264
     35 C          60.5244   95.8688    0.3950 C.3     1  UNL1        0.0329
     36 C          59.1696   96.5030    0.2846 C.3     1  UNL1        0.0241
     37 C          58.3159   96.2433   -0.9211 C.3     1  UNL1        0.0928
     38 N          57.0293   95.4853   -0.7798 N.am    1  UNL1       -0.2707
     39 C          55.9914   95.5614   -1.8601 C.2     1  UNL1        0.4017
     40 O          56.2402   96.3957   -3.0817 O.2     1  UNL1       -0.2264
     41 H          56.8660   94.9377    0.0219 H       1  UNL1        0.1527
     42 O          54.7048   94.8034   -1.7188 O.3     1  UNL1       -0.4306
     43 C          53.3948   95.5043   -1.9254 C.3     1  UNL1        0.2573
@<TRIPOS>BOND
     1    33    34    1
     2    34    27    1
     3    27    28   ar
     4    28    29   ar
     5    29    30   ar
     6    30    31   ar
     7    31    20    1
     8    20    21   ar
     9    21    22    1
    10    21    23   ar
    11    23    24   ar
    12    24    25   ar
    13    25    26   ar
    14    26     1    1
    15     1     2    1
    16     1    35    1
    17    35    36    1
    18    36    37    1
    19    37    38    1
    20    38    39   am
    21    39    40    2
    22    39    42    1
    23    42    43    1
    24     4     1    1
    25     4     5    1
    26     5     6    1
    27     6     7    1
    28     7     8    1
    29     8     9   am
    30     9    10    2
    31    12     9    1
    32    12    13    1
    33    13    14    1
    34    14    15    1
    35    15    17    1
    36    17    18    1
    37    15    16    1
    38     8    11    1
    39    31    32   ar
    40    32    27   ar
    41    26    20   ar
    42    11     4    1
    43    16    12    1
    44     2     3    1
    45    38    41    1
    46    17    19    1
@<TRIPOS>MOLECULE
*****
 43 46 0 0 0
SMALL
GASTEIGER

@<TRIPOS>ATOM
      1 C          62.4169   87.3738   12.0518 C.3     1  UNL1        0.1085
      2 O          63.5705   87.2466   13.0020 O.3     1  UNL1       -0.3826
      3 H          63.5223   86.3910   13.4564 H       1  UNL1        0.2107
      4 C          62.9038   88.7322   11.6425 C.3     1  UNL1        0.0484
      5 C          62.5000   89.3056   10.3165 C.3     1  UNL1        0.0061
      6 C          62.9870   90.6641    9.9072 C.3     1  UNL1        0.0217
      7 C          63.8777   91.4491   10.8239 C.3     1  UNL1        0.0934
      8 N          64.2815   90.8757   12.1499 N.am    1  UNL1       -0.2795
      9 C          65.1722   91.6609   13.0665 C.2     1  UNL1        0.2252
     10 O          65.5760   91.0875   14.3925 O.2     1  UNL1       -0.2749
     11 C          63.7946   89.5173   12.5592 C.3     1  UNL1        0.0960
     12 C          65.6591   93.0193   12.6573 C.3     1  UNL1        0.0781
     13 C          66.3172   94.0267   13.5528 C.3     1  UNL1        0.0105
     14 C          66.6382   95.2389   12.7295 C.3     1  UNL1        0.0162
     15 C          66.1786   94.9806   11.3252 C.3     1  UNL1        0.0545
     16 C          65.5735   93.6088   11.2806 C.3     1  UNL1        0.0248
     17 N          66.3023   95.9277   10.1687 N.3     1  UNL1       -0.2974
     18 C          67.4621   95.8112    9.2247 C.3     1  UNL1        0.0858
     19 H          66.3353   96.8687   10.5610 H       1  UNL1        0.1232
     20 C          61.1479   86.5680    9.9327 C.ar    1  UNL1        0.0088
     21 C          59.9944   86.6952    8.9824 C.ar    1  UNL1        0.0574
     22 CL         59.8791   85.7621    7.8136 Cl      1  UNL1       -0.0823
     23 C          58.9560   87.7555    9.2009 C.ar    1  UNL1        0.0114
     24 C          59.0713   88.6885   10.3697 C.ar    1  UNL1        0.0006
     25 C          60.2250   88.5613   11.3200 C.ar    1  UNL1       -0.0020
     26 C          61.2632   87.5010   11.1015 C.ar    1  UNL1        0.0026
     27 C          63.2835   83.2565   10.4059 C.ar    1  UNL1       -0.0222
     28 C          64.2628   83.3871    9.2773 C.ar    1  UNL1       -0.0043
     29 C          64.2039   84.5780    8.3671 C.ar    1  UNL1       -0.0003
     30 C          63.1657   85.6383    8.5856 C.ar    1  UNL1       -0.0000
     31 C          62.1863   85.5077    9.7142 C.ar    1  UNL1        0.0003
     32 C          62.2452   84.3168   10.6243 C.ar    1  UNL1       -0.0042
     33 C          64.4136   81.9732   12.3618 C.3     1  UNL1        0.0050
     34 C          63.3424   82.0656   11.3160 C.3     1  UNL1        0.0264
     35 C          61.9300   86.0154   12.4611 C.3     1  UNL1        0.0329
     36 C          62.8074   85.1213   13.2861 C.3     1  UNL1        0.0241
     37 C          62.1932   84.1453   14.2453 C.3     1  UNL1        0.0928
     38 N          61.7007   84.6160   15.5817 N.am    1  UNL1       -0.2707
     39 C          62.5761   85.4776   16.4426 C.2     1  UNL1        0.4017
     40 O          63.9440   85.8685   15.9672 O.2     1  UNL1       -0.2264
     41 H          60.8029   84.3594   15.8937 H       1  UNL1        0.1527
     42 O          62.0836   85.9482   17.7790 O.3     1  UNL1       -0.4306
     43 C          62.7463   87.1116   18.4553 C.3     1  UNL1        0.2573
@<TRIPOS>BOND
     1    33    34    1
     2    34    27    1
     3    27    28   ar
     4    28    29   ar
     5    29    30   ar
     6    30    31   ar
     7    31    20    1
     8    20    21   ar
     9    21    22    1
    10    21    23   ar
    11    23    24   ar
    12    24    25   ar
    13    25    26   ar
    14    26     1    1
    15     1     2    1
    16     1    35    1
    17    35    36    1
    18    36    37    1
    19    37    38    1
    20    38    39   am
    21    39    40    2
    22    39    42    1
    23    42    43    1
    24     4     1    1
    25     4     5    1
    26     5     6    1
    27     6     7    1
    28     7     8    1
    29     8     9   am
    30     9    10    2
    31    12     9    1
    32    12    13    1
    33    13    14    1
    34    14    15    1
    35    15    17    1
    36    17    18    1
    37    15    16    1
    38     8    11    1
    39    31    32   ar
    40    32    27   ar
    41    26    20   ar
    42    11     4    1
    43    16    12    1
    44     2     3    1
    45    38    41    1
    46    17    19    1
@<TRIPOS>MOLECULE
*****
 43 46 0 0 0
SMALL
GASTEIGER

@<TRIPOS>ATOM
      1 C          62.6327   89.3266   10.5327 C.3     1  UNL1        0.1085
      2 O          63.6704   89.3047    9.4498 O.3     1  UNL1       -0.3826
      3 H          63.8753   90.2136    9.1800 H       1  UNL1        0.2107
      4 C          62.6635   87.8281   10.5924 C.3     1  UNL1        0.0484
      5 C          62.5102   87.0241    9.3354 C.3     1  UNL1        0.0061
      6 C          62.5409   85.5256    9.3951 C.3     1  UNL1        0.0217
      7 C          62.7250   84.8311   10.7118 C.3     1  UNL1        0.0934
      8 N          62.8782   85.6351   11.9689 N.am    1  UNL1       -0.2795
      9 C          63.0622   84.9405   13.2856 C.2     1  UNL1        0.2252
     10 O          63.2155   85.7445   14.5427 O.2     1  UNL1       -0.2749
     11 C          62.8475   87.1336   11.9092 C.3     1  UNL1        0.0960
     12 C          63.0930   83.4421   13.3453 C.3     1  UNL1        0.0781
     13 C          64.2813   82.5725   13.0595 C.3     1  UNL1        0.0105
     14 C          63.8635   81.1430   13.2389 C.3     1  UNL1        0.0162
     15 C          62.4170   81.1291   13.6355 C.3     1  UNL1        0.0545
     16 C          61.9408   82.5500   13.7012 C.3     1  UNL1        0.0248
     17 N          61.5916   79.9087   13.9168 N.3     1  UNL1       -0.2974
     18 C          60.1213   80.0424   14.1820 C.3     1  UNL1        0.0858
     19 H          61.9992   79.4603   14.7373 H       1  UNL1        0.1232
     20 C          60.1749   88.9818   11.3011 C.ar    1  UNL1        0.0088
     21 C          59.1372   89.0036   12.3840 C.ar    1  UNL1        0.0574
     22 CL         57.7171   88.6371   12.0694 Cl      1  UNL1       -0.0823
     23 C          59.5196   89.3920   13.7815 C.ar    1  UNL1        0.0114
     24 C          60.9397   89.7585   14.0961 C.ar    1  UNL1        0.0006
     25 C          61.9774   89.7367   13.0132 C.ar    1  UNL1       -0.0020
     26 C          61.5950   89.3484   11.6157 C.ar    1  UNL1        0.0026
     27 C          59.5154   89.2064    7.3941 C.ar    1  UNL1       -0.0222
     28 C          59.0279   87.8169    7.1086 C.ar    1  UNL1       -0.0043
     29 C          58.9227   86.8157    8.2206 C.ar    1  UNL1       -0.0003
     30 C          59.3050   87.2040    9.6181 C.ar    1  UNL1       -0.0000
     31 C          59.7925   88.5935    9.9036 C.ar    1  UNL1        0.0003
     32 C          59.8977   89.5947    8.7916 C.ar    1  UNL1       -0.0042
     33 C          58.3804   90.7032    5.5993 C.3     1  UNL1        0.0050
     34 C          59.6206   90.2076    6.2821 C.3     1  UNL1        0.0264
     35 C          62.6020   90.8251   10.4731 C.3     1  UNL1        0.0329
     36 C          63.7898   91.5795    9.9534 C.3     1  UNL1        0.0241
     37 C          64.6697   92.3386   10.9018 C.3     1  UNL1        0.0928
     38 N          65.4205   93.5463   10.4247 N.am    1  UNL1       -0.2707
     39 C          66.9195   93.5656   10.4745 C.2     1  UNL1        0.4017
     40 O          67.6678   92.3770   11.0013 O.2     1  UNL1       -0.2264
     41 H          64.9294   94.3264   10.0790 H       1  UNL1        0.1527
     42 O          67.6703   94.7733    9.9974 O.3     1  UNL1       -0.4306
     43 C          66.9872   95.7853    9.1260 C.3     1  UNL1        0.2573
@<TRIPOS>BOND
     1    33    34    1
     2    34    27    1
     3    27    28   ar
     4    28    29   ar
     5    29    30   ar
     6    30    31   ar
     7    31    20    1
     8    20    21   ar
     9    21    22    1
    10    21    23   ar
    11    23    24   ar
    12    24    25   ar
    13    25    26   ar
    14    26     1    1
    15     1     2    1
    16     1    35    1
    17    35    36    1
    18    36    37    1
    19    37    38    1
    20    38    39   am
    21    39    40    2
    22    39    42    1
    23    42    43    1
    24     4     1    1
    25     4     5    1
    26     5     6    1
    27     6     7    1
    28     7     8    1
    29     8     9   am
    30     9    10    2
    31    12     9    1
    32    12    13    1
    33    13    14    1
    34    14    15    1
    35    15    17    1
    36    17    18    1
    37    15    16    1
    38     8    11    1
    39    31    32   ar
    40    32    27   ar
    41    26    20   ar
    42    11     4    1
    43    16    12    1
    44     2     3    1
    45    38    41    1
    46    17    19    1
@<TRIPOS>MOLECULE
*****
 43 46 0 0 0
SMALL
GASTEIGER

@<TRIPOS>ATOM
      1 C          60.6766   94.6362    0.4334 C.3     1  UNL1        0.1085
      2 O          59.4267   93.8963    0.0589 O.3     1  UNL1       -0.3826
      3 H          58.9891   94.3525   -0.6769 H       1  UNL1        0.2107
      4 C          60.9523   93.6265    1.5079 C.3     1  UNL1        0.0484
      5 C          62.3265   93.0433    1.6542 C.3     1  UNL1        0.0061
      6 C          62.6022   92.0336    2.7287 C.3     1  UNL1        0.0217
      7 C          61.5037   91.6071    3.6568 C.3     1  UNL1        0.0934
      8 N          60.1295   92.1903    3.5105 N.am    1  UNL1       -0.2795
      9 C          59.0310   91.7638    4.4387 C.2     1  UNL1        0.2252
     10 O          57.6568   92.3470    4.2923 O.2     1  UNL1       -0.2749
     11 C          59.8538   93.2000    2.4361 C.3     1  UNL1        0.0960
     12 C          59.3068   90.7541    5.5131 C.3     1  UNL1        0.0781
     13 C          60.4799   90.7594    6.4478 C.3     1  UNL1        0.0105
     14 C          60.3559   89.5703    7.3539 C.3     1  UNL1        0.0162
     15 C          59.1062   88.8302    6.9791 C.3     1  UNL1        0.0545
     16 C          58.4578   89.5618    5.8415 C.3     1  UNL1        0.0248
     17 N          58.5948   87.5784    7.6281 N.3     1  UNL1       -0.2974
     18 C          59.5335   86.6923    8.3920 C.3     1  UNL1        0.0858
     19 H          58.1884   87.0074    6.8870 H       1  UNL1        0.1232
     20 C          63.0832   95.4255   -0.1457 C.ar    1  UNL1        0.0088
     21 C          64.3331   96.1653    0.2288 C.ar    1  UNL1        0.0574
     22 CL         65.4897   96.2147   -0.7250 Cl      1  UNL1       -0.0823
     23 C          64.4264   96.8559    1.5572 C.ar    1  UNL1        0.0114
     24 C          63.2697   96.8065    2.5110 C.ar    1  UNL1        0.0006
     25 C          62.0198   96.0666    2.1364 C.ar    1  UNL1       -0.0020
     26 C          61.9265   95.3761    0.8080 C.ar    1  UNL1        0.0026
     27 C          62.2971   94.7578   -3.9780 C.ar    1  UNL1       -0.0222
     28 C          62.8032   93.3541   -4.1308 C.ar    1  UNL1       -0.0043
     29 C          63.4027   92.6408   -2.9553 C.ar    1  UNL1       -0.0003
     30 C          63.4960   93.3313   -1.6269 C.ar    1  UNL1       -0.0000
     31 C          62.9899   94.7350   -1.4741 C.ar    1  UNL1        0.0003
     32 C          62.3904   95.4482   -2.6497 C.ar    1  UNL1       -0.0042
     33 C          60.4903   94.9035   -5.8392 C.3     1  UNL1        0.0050
     34 C          61.6976   95.4710   -5.1536 C.3     1  UNL1        0.0264
     35 C          60.4008   95.6459   -0.6410 C.3     1  UNL1        0.0329
     36 C          59.3748   96.7172   -0.4180 C.3     1  UNL1        0.0241
     37 C          58.0482   96.6416   -1.1139 C.3     1  UNL1        0.0928
     38 N          57.0935   95.5310   -0.7898 N.am    1  UNL1       -0.2707
     39 C          56.7738   94.4914   -1.8227 C.2     1  UNL1        0.4017
     40 O          57.4088   94.5624   -3.1799 O.2     1  UNL1       -0.2264
     41 H          56.6767   95.4843    0.1009 H       1  UNL1        0.1527
     42 O          55.8190   93.3808   -1.4986 O.3     1  UNL1       -0.4306
     43 C          55.8857   92.0889   -2.2580 C.3     1  UNL1        0.2573
@<TRIPOS>BOND
     1    33    34    1
     2    34    27    1
     3    27    28   ar
     4    28    29   ar
     5    29    30   ar
     6    30    31   ar
     7    31    20    1
     8    20    21   ar
     9    21    22    1
    10    21    23   ar
    11    23    24   ar
    12    24    25   ar
    13    25    26   ar
    14    26     1    1
    15     1     2    1
    16     1    35    1
    17    35    36    1
    18    36    37    1
    19    37    38    1
    20    38    39   am
    21    39    40    2
    22    39    42    1
    23    42    43    1
    24     4     1    1
    25     4     5    1
    26     5     6    1
    27     6     7    1
    28     7     8    1
    29     8     9   am
    30     9    10    2
    31    12     9    1
    32    12    13    1
    33    13    14    1
    34    14    15    1
    35    15    17    1
    36    17    18    1
    37    15    16    1
    38     8    11    1
    39    31    32   ar
    40    32    27   ar
    41    26    20   ar
    42    11     4    1
    43    16    12    1
    44     2     3    1
    45    38    41    1
    46    17    19    1
@<TRIPOS>MOLECULE
*****
 43 46 0 0 0
SMALL
GASTEIGER

@<TRIPOS>ATOM
      1 C          62.6434   89.3531   10.5516 C.3     1  UNL1        0.1085
      2 O          63.6845   89.3365    9.4720 O.3     1  UNL1       -0.3826
      3 H          63.8911   90.2467    9.2080 H       1  UNL1        0.2107
      4 C          62.6727   87.8543   10.6030 C.3     1  UNL1        0.0484
      5 C          62.5138   87.0574    9.3421 C.3     1  UNL1        0.0061
      6 C          62.5432   85.5585    9.3935 C.3     1  UNL1        0.0217
      7 C          62.7314   84.8566   10.7057 C.3     1  UNL1        0.0934
      8 N          62.8902   85.6535   11.9665 N.am    1  UNL1       -0.2795
      9 C          63.0784   84.9515   13.2787 C.2     1  UNL1        0.2252
     10 O          63.2373   85.7484   14.5396 O.2     1  UNL1       -0.2749
     11 C          62.8609   87.1523   11.9152 C.3     1  UNL1        0.0960
     12 C          63.1078   83.4527   13.3301 C.3     1  UNL1        0.0781
     13 C          64.2886   82.5827   13.0159 C.3     1  UNL1        0.0105
     14 C          63.8720   81.1530   13.1963 C.3     1  UNL1        0.0162
     15 C          62.4337   81.1394   13.6218 C.3     1  UNL1        0.0545
     16 C          61.9614   82.5607   13.7045 C.3     1  UNL1        0.0248
     17 N          61.6121   79.9188   13.9135 N.3     1  UNL1       -0.2974
     18 C          60.1415   80.0504   14.1784 C.3     1  UNL1        0.0858
     19 H          62.0214   79.4783   14.7374 H       1  UNL1        0.1232
     20 C          60.1845   88.9979   11.3118 C.ar    1  UNL1        0.0088
     21 C          59.1433   89.0144   12.3914 C.ar    1  UNL1        0.0574
     22 CL         57.7256   88.6426   12.0719 Cl      1  UNL1       -0.0823
     23 C          59.5197   89.4027   13.7906 C.ar    1  UNL1        0.0114
     24 C          60.9373   89.7745   14.1101 C.ar    1  UNL1        0.0006
     25 C          61.9786   89.7579   13.0304 C.ar    1  UNL1       -0.0020
     26 C          61.6021   89.3696   11.6313 C.ar    1  UNL1        0.0026
     27 C          59.5353   89.2246    7.4032 C.ar    1  UNL1       -0.0222
     28 C          59.0553   87.8331    7.1144 C.ar    1  UNL1       -0.0043
     29 C          58.9518   86.8299    8.2247 C.ar    1  UNL1       -0.0003
     30 C          59.3281   87.2181    9.6238 C.ar    1  UNL1       -0.0000
     31 C          59.8081   88.6096    9.9126 C.ar    1  UNL1        0.0003
     32 C          59.9116   89.6128    8.8023 C.ar    1  UNL1       -0.0042
     33 C          58.3982   90.7181    5.6070 C.3     1  UNL1        0.0050
     34 C          59.6388   90.2278    6.2929 C.3     1  UNL1        0.0264
     35 C          62.6140   90.8519   10.5003 C.3     1  UNL1        0.0329
     36 C          63.8465   91.6133   10.1114 C.3     1  UNL1        0.0241
     37 C          64.6096   92.3845   11.1471 C.3     1  UNL1        0.0928
     38 N          64.8898   91.7684   12.4858 N.am    1  UNL1       -0.2707
     39 C          66.2056   92.0126   13.1632 C.2     1  UNL1        0.4017
     40 O          67.2413   92.8729   12.5020 O.2     1  UNL1       -0.2264
     41 H          64.2100   91.2038   12.9197 H       1  UNL1        0.1527
     42 O          66.4857   91.3965   14.5018 O.3     1  UNL1       -0.4306
     43 C          67.6593   91.8629   15.3113 C.3     1  UNL1        0.2573
@<TRIPOS>BOND
     1    33    34    1
     2    34    27    1
     3    27    28   ar
     4    28    29   ar
     5    29    30   ar
     6    30    31   ar
     7    31    20    1
     8    20    21   ar
     9    21    22    1
    10    21    23   ar
    11    23    24   ar
    12    24    25   ar
    13    25    26   ar
    14    26     1    1
    15     1     2    1
    16     1    35    1
    17    35    36    1
    18    36    37    1
    19    37    38    1
    20    38    39   am
    21    39    40    2
    22    39    42    1
    23    42    43    1
    24     4     1    1
    25     4     5    1
    26     5     6    1
    27     6     7    1
    28     7     8    1
    29     8     9   am
    30     9    10    2
    31    12     9    1
    32    12    13    1
    33    13    14    1
    34    14    15    1
    35    15    17    1
    36    17    18    1
    37    15    16    1
    38     8    11    1
    39    31    32   ar
    40    32    27   ar
    41    26    20   ar
    42    11     4    1
    43    16    12    1
    44     2     3    1
    45    38    41    1
    46    17    19    1
@<TRIPOS>MOLECULE
*****
 43 46 0 0 0
SMALL
GASTEIGER

@<TRIPOS>ATOM
      1 C          60.7106   89.0698   12.0806 C.3     1  UNL1        0.1085
      2 O          60.6319   90.0907   13.1767 O.3     1  UNL1       -0.3826
      3 H          60.0187   89.7825   13.8622 H       1  UNL1        0.2107
      4 C          61.6886   89.9362   11.3439 C.3     1  UNL1        0.0484
      5 C          61.5606   90.1177    9.8604 C.3     1  UNL1        0.0061
      6 C          62.5387   90.9842    9.1237 C.3     1  UNL1        0.0217
      7 C          63.6446   91.6692    9.8704 C.3     1  UNL1        0.0934
      8 N          63.7725   91.4878   11.3539 N.am    1  UNL1       -0.2795
      9 C          64.8785   92.1728   12.1007 C.2     1  UNL1        0.2252
     10 O          65.0065   91.9914   13.5842 O.2     1  UNL1       -0.2749
     11 C          62.7946   90.6213   12.0907 C.3     1  UNL1        0.0960
     12 C          65.8565   93.0393   11.3639 C.3     1  UNL1        0.0781
     13 C          67.0970   92.5699   10.6636 C.3     1  UNL1        0.0105
     14 C          67.7728   93.7678   10.0650 C.3     1  UNL1        0.0162
     15 C          66.9499   94.9776   10.3954 C.3     1  UNL1        0.0545
     16 C          65.7656   94.5274   11.1982 C.3     1  UNL1        0.0248
     17 N          67.2574   96.3897    9.9936 N.3     1  UNL1       -0.2974
     18 C          67.2144   96.7841    8.5470 C.3     1  UNL1        0.0858
     19 H          68.2004   96.5917   10.3260 H       1  UNL1        0.1232
     20 C          61.7706   86.9184   11.0815 C.ar    1  UNL1        0.0088
     21 C          61.8494   85.8975    9.9854 C.ar    1  UNL1        0.0574
     22 CL         62.8306   84.7671   10.0825 Cl      1  UNL1       -0.0823
     23 C          60.9471   86.0070    8.7921 C.ar    1  UNL1        0.0114
     24 C          59.9659   87.1375    8.6950 C.ar    1  UNL1        0.0006
     25 C          59.8871   88.1584    9.7912 C.ar    1  UNL1       -0.0020
     26 C          60.7894   88.0489   10.9844 C.ar    1  UNL1        0.0026
     27 C          63.7216   85.3870   14.1797 C.ar    1  UNL1       -0.0222
     28 C          64.4775   86.5897   14.6613 C.ar    1  UNL1       -0.0043
     29 C          64.3311   87.9020   13.9496 C.ar    1  UNL1       -0.0003
     30 C          63.4288   88.0116   12.7564 C.ar    1  UNL1       -0.0000
     31 C          62.6729   86.8089   12.2748 C.ar    1  UNL1        0.0003
     32 C          62.8193   85.4966   12.9864 C.ar    1  UNL1       -0.0042
     33 C          62.6658   83.2072   15.1197 C.3     1  UNL1        0.0050
     34 C          63.8680   84.0747   14.8913 C.3     1  UNL1        0.0264
     35 C          59.7327   88.2033   12.8174 C.3     1  UNL1        0.0329
     36 C          58.9502   88.7656   13.9670 C.3     1  UNL1        0.0241
     37 C          59.4319   88.5621   15.3729 C.3     1  UNL1        0.0928
     38 N          60.7554   89.1235   15.8009 N.am    1  UNL1       -0.2707
     39 C          61.7039   88.2810   16.6012 C.2     1  UNL1        0.4017
     40 O          61.3290   86.8771   16.9735 O.2     1  UNL1       -0.2264
     41 H          61.0015   90.0449   15.5566 H       1  UNL1        0.1527
     42 O          63.0274   88.8423   17.0292 O.3     1  UNL1       -0.4306
     43 C          63.4618   90.1932   16.5427 C.3     1  UNL1        0.2573
@<TRIPOS>BOND
     1    33    34    1
     2    34    27    1
     3    27    28   ar
     4    28    29   ar
     5    29    30   ar
     6    30    31   ar
     7    31    20    1
     8    20    21   ar
     9    21    22    1
    10    21    23   ar
    11    23    24   ar
    12    24    25   ar
    13    25    26   ar
    14    26     1    1
    15     1     2    1
    16     1    35    1
    17    35    36    1
    18    36    37    1
    19    37    38    1
    20    38    39   am
    21    39    40    2
    22    39    42    1
    23    42    43    1
    24     4     1    1
    25     4     5    1
    26     5     6    1
    27     6     7    1
    28     7     8    1
    29     8     9   am
    30     9    10    2
    31    12     9    1
    32    12    13    1
    33    13    14    1
    34    14    15    1
    35    15    17    1
    36    17    18    1
    37    15    16    1
    38     8    11    1
    39    31    32   ar
    40    32    27   ar
    41    26    20   ar
    42    11     4    1
    43    16    12    1
    44     2     3    1
    45    38    41    1
    46    17    19    1
@<TRIPOS>MOLECULE
*****
 43 46 0 0 0
SMALL
GASTEIGER

@<TRIPOS>ATOM
      1 C          62.3881   87.0629   12.0337 C.3     1  UNL1        0.1085
      2 O          63.3592   86.0753   12.6095 O.3     1  UNL1       -0.3826
      3 H          63.0697   85.1747   12.3953 H       1  UNL1        0.2107
      4 C          63.2063   88.1910   12.5886 C.3     1  UNL1        0.0484
      5 C          63.7801   88.0921   13.9710 C.3     1  UNL1        0.0061
      6 C          64.5983   89.2203   14.5259 C.3     1  UNL1        0.0217
      7 C          64.8428   90.4472   13.6984 C.3     1  UNL1        0.0934
      8 N          64.2690   90.5461   12.3160 N.am    1  UNL1       -0.2795
      9 C          64.5135   91.7731   11.4885 C.2     1  UNL1        0.2252
     10 O          63.9398   91.8720   10.1061 O.2     1  UNL1       -0.2749
     11 C          63.4508   89.4180   11.7611 C.3     1  UNL1        0.0960
     12 C          65.3317   92.9012   12.0434 C.3     1  UNL1        0.0781
     13 C          65.5931   94.2155   11.3694 C.3     1  UNL1        0.0105
     14 C          66.4552   95.0396   12.2792 C.3     1  UNL1        0.0162
     15 C          66.7266   94.2346   13.5155 C.3     1  UNL1        0.0545
     16 C          66.0323   92.9130   13.3697 C.3     1  UNL1        0.0248
     17 N          67.5481   94.6741   14.6910 N.3     1  UNL1       -0.2974
     18 C          68.0785   93.6570   15.6575 C.3     1  UNL1        0.0858
     19 H          66.9698   95.3188   15.2298 H       1  UNL1        0.1232
     20 C          61.0901   88.0149    9.9944 C.ar    1  UNL1        0.0088
     21 C          60.1190   89.0025    9.4185 C.ar    1  UNL1        0.0574
     22 CL         59.7920   88.9668    7.9550 Cl      1  UNL1       -0.0823
     23 C          59.4749   90.0259   10.3061 C.ar    1  UNL1        0.0114
     24 C          59.8019   90.0616   11.7696 C.ar    1  UNL1        0.0006
     25 C          60.7730   89.0739   12.3455 C.ar    1  UNL1       -0.0020
     26 C          61.4170   88.0506   11.4579 C.ar    1  UNL1        0.0026
     27 C          61.5438   85.1843    7.2499 C.ar    1  UNL1       -0.0222
     28 C          63.0222   84.9447    7.3315 C.ar    1  UNL1       -0.0043
     29 C          63.8567   85.7285    8.3007 C.ar    1  UNL1       -0.0003
     30 C          63.2126   86.7519    9.1884 C.ar    1  UNL1       -0.0000
     31 C          61.7342   86.9915    9.1067 C.ar    1  UNL1        0.0003
     32 C          60.8997   86.2077    8.1375 C.ar    1  UNL1       -0.0042
     33 C          61.3505   83.7617    5.0845 C.3     1  UNL1        0.0050
     34 C          60.7093   84.4005    6.2806 C.3     1  UNL1        0.0264
     35 C          61.5699   85.9349   11.4788 C.3     1  UNL1        0.0329
     36 C          62.1405   84.5485   11.4285 C.3     1  UNL1        0.0241
     37 C          62.2047   83.7182   12.6761 C.3     1  UNL1        0.0928
     38 N          61.9604   84.3531   14.0129 N.am    1  UNL1       -0.2707
     39 C          62.6237   83.7990   15.2388 C.2     1  UNL1        0.4017
     40 O          63.5315   82.6100   15.1279 O.2     1  UNL1       -0.2264
     41 H          61.3646   85.1334   14.0858 H       1  UNL1        0.1527
     42 O          62.3794   84.4338   16.5757 O.3     1  UNL1       -0.4306
     43 C          62.6800   85.8890   16.7811 C.3     1  UNL1        0.2573
@<TRIPOS>BOND
     1    33    34    1
     2    34    27    1
     3    27    28   ar
     4    28    29   ar
     5    29    30   ar
     6    30    31   ar
     7    31    20    1
     8    20    21   ar
     9    21    22    1
    10    21    23   ar
    11    23    24   ar
    12    24    25   ar
    13    25    26   ar
    14    26     1    1
    15     1     2    1
    16     1    35    1
    17    35    36    1
    18    36    37    1
    19    37    38    1
    20    38    39   am
    21    39    40    2
    22    39    42    1
    23    42    43    1
    24     4     1    1
    25     4     5    1
    26     5     6    1
    27     6     7    1
    28     7     8    1
    29     8     9   am
    30     9    10    2
    31    12     9    1
    32    12    13    1
    33    13    14    1
    34    14    15    1
    35    15    17    1
    36    17    18    1
    37    15    16    1
    38     8    11    1
    39    31    32   ar
    40    32    27   ar
    41    26    20   ar
    42    11     4    1
    43    16    12    1
    44     2     3    1
    45    38    41    1
    46    17    19    1
