@<TRIPOS>MOLECULE
*****
 26 28 0 0 0
SMALL
GASTEIGER

@<TRIPOS>ATOM
      1 C          62.6699   84.3986   11.6674 C.ar    1  UNL1        0.0576
      2 C          62.5585   82.9055   11.5768 C.ar    1  UNL1        0.0161
      3 C          63.0608   82.0465   12.6991 C.ar    1  UNL1        0.0609
      4 CL         62.9494   80.5533   12.6086 Cl      1  UNL1       -0.0821
      5 C          63.6744   82.6806   13.9121 C.ar    1  UNL1        0.0489
      6 C          63.7859   84.1736   14.0028 C.ar    1  UNL1        0.1464
      7 C          63.2836   85.0327   12.8804 C.ar    1  UNL1        0.0421
      8 O          62.8435   85.2138    9.2066 O.2     1  UNL1       -0.2698
      9 C          62.1676   85.2577   10.5450 C.2     1  UNL1        0.2507
     10 N          60.9895   86.1606   10.7610 N.am    1  UNL1       -0.2658
     11 H          60.5459   86.1894   11.6394 H       1  UNL1        0.1566
     12 C          60.4872   87.0197    9.6386 C.ar    1  UNL1        0.1345
     13 C          60.6932   88.5049    9.6808 C.ar    1  UNL1        0.0368
     14 C          60.1909   89.3639    8.5584 C.ar    1  UNL1        0.0341
     15 C          59.4826   88.7378    7.3939 C.ar    1  UNL1        0.1593
     16 F          58.9804   89.5969    6.2714 F       1  UNL1       -0.2025
     17 C          59.2766   87.2526    7.3516 C.ar    1  UNL1        0.1298
     18 N          59.7789   86.3936    8.4740 N.ar    1  UNL1       -0.2267
     19 O          64.3995   84.8077   15.2158 O.3     1  UNL1       -0.4518
     20 C          64.0248   86.2081   15.6008 C.ar    1  UNL1        0.1666
     21 C          63.1702   86.4505   16.8095 C.ar    1  UNL1        0.1364
     22 N          62.7954   87.8509   17.1945 N.ar    1  UNL1       -0.2368
     23 C          63.2752   89.0091   16.3709 C.ar    1  UNL1        0.1286
     24 C          64.1298   88.7668   15.1622 C.ar    1  UNL1        0.1623
     25 F          64.6096   89.9250   14.3385 F       1  UNL1       -0.2024
     26 C          64.5046   87.3663   14.7771 C.ar    1  UNL1        0.0703
@<TRIPOS>BOND
     1     8     9    2
     2     9    10   am
     3    10    12    1
     4    12    13   ar
     5    13    14   ar
     6    14    15   ar
     7    15    16    1
     8    15    17   ar
     9    17    18   ar
    10     9     1    1
    11     1     2   ar
    12     2     3   ar
    13     3     4    1
    14     3     5   ar
    15     5     6   ar
    16     6    19    1
    17    19    20    1
    18    20    21   ar
    19    21    22   ar
    20    22    23   ar
    21    23    24   ar
    22    24    25    1
    23    24    26   ar
    24     6     7   ar
    25    18    12   ar
    26     7     1   ar
    27    26    20   ar
    28    10    11    1
@<TRIPOS>MOLECULE
*****
 26 28 0 0 0
SMALL
GASTEIGER

@<TRIPOS>ATOM
      1 C          63.5086   88.2110   13.0545 C.ar    1  UNL1        0.0576
      2 C          63.0069   88.7240   11.7374 C.ar    1  UNL1        0.0161
      3 C          62.9914   90.1987   11.4636 C.ar    1  UNL1        0.0609
      4 CL         62.4897   90.7118   10.1463 Cl      1  UNL1       -0.0821
      5 C          63.4778   91.1604   12.5070 C.ar    1  UNL1        0.0489
      6 C          63.9795   90.6474   13.8241 C.ar    1  UNL1        0.1464
      7 C          63.9949   89.1727   14.0979 C.ar    1  UNL1        0.0421
      8 O          64.4237   86.1804   14.3922 O.2     1  UNL1       -0.2698
      9 C          63.5241   86.7362   13.3284 C.2     1  UNL1        0.2507
     10 N          62.6400   85.8174   12.5384 N.am    1  UNL1       -0.2658
     11 H          62.0495   86.1823   11.8402 H       1  UNL1        0.1566
     12 C          62.6554   84.3426   12.8123 C.ar    1  UNL1        0.1345
     13 C          62.9935   83.3793   11.7134 C.ar    1  UNL1        0.0368
     14 C          63.0090   81.9046   11.9873 C.ar    1  UNL1        0.0341
     15 C          62.6863   81.3933   13.3601 C.ar    1  UNL1        0.1593
     16 F          62.7018   79.9185   13.6339 F       1  UNL1       -0.2025
     17 C          62.3482   82.3567   14.4589 C.ar    1  UNL1        0.1298
     18 N          62.3328   83.8313   14.1851 N.ar    1  UNL1       -0.2267
     19 O          64.4658   91.6090   14.8675 O.3     1  UNL1       -0.4518
     20 C          65.9187   91.9769   14.9295 C.ar    1  UNL1        0.1666
     21 C          66.4521   92.7291   16.1127 C.ar    1  UNL1        0.1364
     22 N          67.9049   93.0970   16.1746 N.ar    1  UNL1       -0.2368
     23 C          68.8244   92.7127   15.0536 C.ar    1  UNL1        0.1286
     24 C          68.2911   91.9605   13.8705 C.ar    1  UNL1        0.1623
     25 F          69.2106   91.5762   12.7494 F       1  UNL1       -0.2024
     26 C          66.8382   91.5926   13.8084 C.ar    1  UNL1        0.0703
@<TRIPOS>BOND
     1     8     9    2
     2     9    10   am
     3    10    12    1
     4    12    13   ar
     5    13    14   ar
     6    14    15   ar
     7    15    16    1
     8    15    17   ar
     9    17    18   ar
    10     9     1    1
    11     1     2   ar
    12     2     3   ar
    13     3     4    1
    14     3     5   ar
    15     5     6   ar
    16     6    19    1
    17    19    20    1
    18    20    21   ar
    19    21    22   ar
    20    22    23   ar
    21    23    24   ar
    22    24    25    1
    23    24    26   ar
    24     6     7   ar
    25    18    12   ar
    26     7     1   ar
    27    26    20   ar
    28    10    11    1
@<TRIPOS>MOLECULE
*****
 26 28 0 0 0
SMALL
GASTEIGER

@<TRIPOS>ATOM
      1 C          63.5449   90.3079   12.7087 C.ar    1  UNL1        0.0576
      2 C          63.1641   89.9699   14.1197 C.ar    1  UNL1        0.0161
      3 C          63.8802   90.6205   15.2660 C.ar    1  UNL1        0.0609
      4 CL         63.4994   90.2825   16.6770 Cl      1  UNL1       -0.0821
      5 C          64.9770   91.6089   15.0014 C.ar    1  UNL1        0.0489
      6 C          65.3577   91.9468   13.5904 C.ar    1  UNL1        0.1464
      7 C          64.6417   91.2963   12.4441 C.ar    1  UNL1        0.0421
      8 O          62.5035   90.4527   10.3329 O.2     1  UNL1       -0.2698
      9 C          62.8288   89.6573   11.5623 C.2     1  UNL1        0.2507
     10 N          62.4382   88.2115   11.6454 N.am    1  UNL1       -0.2658
     11 H          62.6518   87.6895   12.4523 H       1  UNL1        0.1566
     12 C          61.7221   87.5610   10.4990 C.ar    1  UNL1        0.1345
     13 C          62.4361   86.5601    9.6397 C.ar    1  UNL1        0.0368
     14 C          61.7200   85.9096    8.4934 C.ar    1  UNL1        0.0341
     15 C          60.2900   86.2600    8.2064 C.ar    1  UNL1        0.1593
     16 F          59.5740   85.6095    7.0600 F       1  UNL1       -0.2025
     17 C          59.5761   87.2609    9.0657 C.ar    1  UNL1        0.1298
     18 N          60.2922   87.9114   10.2120 N.ar    1  UNL1       -0.2267
     19 O          66.4545   92.9353   13.3258 O.3     1  UNL1       -0.4518
     20 C          66.7318   93.3904   11.9237 C.ar    1  UNL1        0.1666
     21 C          66.2536   94.7356   11.4634 C.ar    1  UNL1        0.1364
     22 N          66.5309   95.1907   10.0613 N.ar    1  UNL1       -0.2368
     23 C          67.2863   94.3007    9.1194 C.ar    1  UNL1        0.1286
     24 C          67.7645   92.9555    9.5796 C.ar    1  UNL1        0.1623
     25 F          68.5199   92.0655    8.6378 F       1  UNL1       -0.2024
     26 C          67.4872   92.5003   10.9818 C.ar    1  UNL1        0.0703
@<TRIPOS>BOND
     1     8     9    2
     2     9    10   am
     3    10    12    1
     4    12    13   ar
     5    13    14   ar
     6    14    15   ar
     7    15    16    1
     8    15    17   ar
     9    17    18   ar
    10     9     1    1
    11     1     2   ar
    12     2     3   ar
    13     3     4    1
    14     3     5   ar
    15     5     6   ar
    16     6    19    1
    17    19    20    1
    18    20    21   ar
    19    21    22   ar
    20    22    23   ar
    21    23    24   ar
    22    24    25    1
    23    24    26   ar
    24     6     7   ar
    25    18    12   ar
    26     7     1   ar
    27    26    20   ar
    28    10    11    1
@<TRIPOS>MOLECULE
*****
 26 28 0 0 0
SMALL
GASTEIGER

@<TRIPOS>ATOM
      1 C          64.0221   88.4295   15.2497 C.ar    1  UNL1        0.0576
      2 C          63.2758   88.3428   16.5479 C.ar    1  UNL1        0.0161
      3 C          63.0906   87.0143   17.2192 C.ar    1  UNL1        0.0609
      4 CL         62.3442   86.9275   18.5175 Cl      1  UNL1       -0.0821
      5 C          63.6516   85.7725   16.5922 C.ar    1  UNL1        0.0489
      6 C          64.3979   85.8591   15.2940 C.ar    1  UNL1        0.1464
      7 C          64.5832   87.1877   14.6227 C.ar    1  UNL1        0.0421
      8 O          63.0126   90.5353   14.1109 O.2     1  UNL1       -0.2698
      9 C          64.2074   89.7581   14.5783 C.2     1  UNL1        0.2507
     10 N          65.5874   90.3094   14.3744 N.am    1  UNL1       -0.2658
     11 H          66.3716   89.7993   14.6812 H       1  UNL1        0.1566
     12 C          65.7727   91.6379   13.7030 C.ar    1  UNL1        0.1345
     13 C          65.3177   91.8327   12.2870 C.ar    1  UNL1        0.0368
     14 C          65.5030   93.1612   11.6158 C.ar    1  UNL1        0.0341
     15 C          66.1433   94.2950   12.3604 C.ar    1  UNL1        0.1593
     16 F          66.3285   95.6235   11.6891 F       1  UNL1       -0.2025
     17 C          66.5982   94.1002   13.7764 C.ar    1  UNL1        0.1298
     18 N          66.4130   92.7717   14.4477 N.ar    1  UNL1       -0.2267
     19 O          64.9590   84.6173   14.6671 O.3     1  UNL1       -0.4518
     20 C          64.0627   83.6977   13.8920 C.ar    1  UNL1        0.1666
     21 C          64.1964   83.6006   12.4010 C.ar    1  UNL1        0.1364
     22 N          63.3001   82.6810   11.6259 N.ar    1  UNL1       -0.2368
     23 C          62.2699   81.8585   12.3416 C.ar    1  UNL1        0.1286
     24 C          62.1361   81.9556   13.8325 C.ar    1  UNL1        0.1623
     25 F          61.1060   81.1331   14.5482 F       1  UNL1       -0.2024
     26 C          63.0325   82.8752   14.6077 C.ar    1  UNL1        0.0703
@<TRIPOS>BOND
     1     8     9    2
     2     9    10   am
     3    10    12    1
     4    12    13   ar
     5    13    14   ar
     6    14    15   ar
     7    15    16    1
     8    15    17   ar
     9    17    18   ar
    10     9     1    1
    11     1     2   ar
    12     2     3   ar
    13     3     4    1
    14     3     5   ar
    15     5     6   ar
    16     6    19    1
    17    19    20    1
    18    20    21   ar
    19    21    22   ar
    20    22    23   ar
    21    23    24   ar
    22    24    25    1
    23    24    26   ar
    24     6     7   ar
    25    18    12   ar
    26     7     1   ar
    27    26    20   ar
    28    10    11    1
@<TRIPOS>MOLECULE
*****
 26 28 0 0 0
SMALL
GASTEIGER

@<TRIPOS>ATOM
      1 C          63.5273   90.1801   12.8213 C.ar    1  UNL1        0.0576
      2 C          63.1284   89.7746   14.2092 C.ar    1  UNL1        0.0161
      3 C          63.7871   90.4134   15.3957 C.ar    1  UNL1        0.0609
      4 CL         63.3883   90.0079   16.7837 Cl      1  UNL1       -0.0821
      5 C          64.8447   91.4579   15.1943 C.ar    1  UNL1        0.0489
      6 C          65.2436   91.8635   13.8064 C.ar    1  UNL1        0.1464
      7 C          64.5849   91.2246   12.6199 C.ar    1  UNL1        0.0421
      8 O          62.7542   90.2962   10.3436 O.2     1  UNL1       -0.2698
      9 C          62.8685   89.5412   11.6347 C.2     1  UNL1        0.2507
     10 N          62.3241   88.1474   11.7393 N.am    1  UNL1       -0.2658
     11 H          62.3991   87.6520   12.5867 H       1  UNL1        0.1566
     12 C          61.6654   87.5085   10.5527 C.ar    1  UNL1        0.1345
     13 C          62.4134   86.4998    9.7324 C.ar    1  UNL1        0.0368
     14 C          61.7546   85.8610    8.5459 C.ar    1  UNL1        0.0341
     15 C          60.3479   86.2309    8.1796 C.ar    1  UNL1        0.1593
     16 F          59.6891   85.5920    6.9930 F       1  UNL1       -0.2025
     17 C          59.5998   87.2396    8.9999 C.ar    1  UNL1        0.1298
     18 N          60.2586   87.8784   10.1864 N.ar    1  UNL1       -0.2267
     19 O          66.3012   92.9079   13.6050 O.3     1  UNL1       -0.4518
     20 C          66.6658   93.3485   12.2183 C.ar    1  UNL1        0.1666
     21 C          67.5103   92.4652   11.3484 C.ar    1  UNL1        0.1364
     22 N          67.8749   92.9058    9.9617 N.ar    1  UNL1       -0.2368
     23 C          67.3949   94.2296    9.4448 C.ar    1  UNL1        0.1286
     24 C          66.5504   95.1128   10.3146 C.ar    1  UNL1        0.1623
     25 F          66.0704   96.4366    9.7977 F       1  UNL1       -0.2024
     26 C          66.1858   94.6723   11.7014 C.ar    1  UNL1        0.0703
@<TRIPOS>BOND
     1     8     9    2
     2     9    10   am
     3    10    12    1
     4    12    13   ar
     5    13    14   ar
     6    14    15   ar
     7    15    16    1
     8    15    17   ar
     9    17    18   ar
    10     9     1    1
    11     1     2   ar
    12     2     3   ar
    13     3     4    1
    14     3     5   ar
    15     5     6   ar
    16     6    19    1
    17    19    20    1
    18    20    21   ar
    19    21    22   ar
    20    22    23   ar
    21    23    24   ar
    22    24    25    1
    23    24    26   ar
    24     6     7   ar
    25    18    12   ar
    26     7     1   ar
    27    26    20   ar
    28    10    11    1
@<TRIPOS>MOLECULE
*****
 26 28 0 0 0
SMALL
GASTEIGER

@<TRIPOS>ATOM
      1 C          64.5996   90.0071   13.6847 C.ar    1  UNL1        0.0576
      2 C          65.4450   90.4677   14.8349 C.ar    1  UNL1        0.0161
      3 C          66.0670   91.8324   14.8093 C.ar    1  UNL1        0.0609
      4 CL         66.9125   92.2930   15.9596 Cl      1  UNL1       -0.0821
      5 C          65.8435   92.7365   13.6335 C.ar    1  UNL1        0.0489
      6 C          64.9980   92.2760   12.4833 C.ar    1  UNL1        0.1464
      7 C          64.3761   90.9113   12.5089 C.ar    1  UNL1        0.0421
      8 O          62.9218   88.2805   12.7081 O.2     1  UNL1       -0.2698
      9 C          63.9776   88.6424   13.7103 C.2     1  UNL1        0.2507
     10 N          64.4113   87.6396   14.7380 N.am    1  UNL1       -0.2658
     11 H          65.1043   87.8771   15.3957 H       1  UNL1        0.1566
     12 C          63.7893   86.2748   14.7635 C.ar    1  UNL1        0.1345
     13 C          63.9644   85.3488   13.5965 C.ar    1  UNL1        0.0368
     14 C          63.3424   83.9841   13.6221 C.ar    1  UNL1        0.0341
     15 C          62.5454   83.5454   14.8147 C.ar    1  UNL1        0.1593
     16 F          61.9233   82.1806   14.8403 F       1  UNL1       -0.2025
     17 C          62.3703   84.4714   15.9817 C.ar    1  UNL1        0.1298
     18 N          62.9923   85.8361   15.9561 N.ar    1  UNL1       -0.2267
     19 O          64.7745   93.1802   11.3075 O.3     1  UNL1       -0.4518
     20 C          65.9422   93.6582   10.4963 C.ar    1  UNL1        0.1666
     21 C          66.0552   95.1074   10.1260 C.ar    1  UNL1        0.1364
     22 N          67.2228   95.5854    9.3148 N.ar    1  UNL1       -0.2368
     23 C          68.2775   94.6142    8.8739 C.ar    1  UNL1        0.1286
     24 C          68.1646   93.1651    9.2442 C.ar    1  UNL1        0.1623
     25 F          69.2193   92.1939    8.8032 F       1  UNL1       -0.2024
     26 C          66.9969   92.6870   10.0554 C.ar    1  UNL1        0.0703
@<TRIPOS>BOND
     1     8     9    2
     2     9    10   am
     3    10    12    1
     4    12    13   ar
     5    13    14   ar
     6    14    15   ar
     7    15    16    1
     8    15    17   ar
     9    17    18   ar
    10     9     1    1
    11     1     2   ar
    12     2     3   ar
    13     3     4    1
    14     3     5   ar
    15     5     6   ar
    16     6    19    1
    17    19    20    1
    18    20    21   ar
    19    21    22   ar
    20    22    23   ar
    21    23    24   ar
    22    24    25    1
    23    24    26   ar
    24     6     7   ar
    25    18    12   ar
    26     7     1   ar
    27    26    20   ar
    28    10    11    1
@<TRIPOS>MOLECULE
*****
 26 28 0 0 0
SMALL
GASTEIGER

@<TRIPOS>ATOM
      1 C          62.7120   89.5407   12.3361 C.ar    1  UNL1        0.0576
      2 C          61.4530   90.3560   12.3257 C.ar    1  UNL1        0.0161
      3 C          60.2909   89.9304   11.4782 C.ar    1  UNL1        0.0609
      4 CL         59.0318   90.7458   11.4678 Cl      1  UNL1       -0.0821
      5 C          60.3877   88.6895   10.6412 C.ar    1  UNL1        0.0489
      6 C          61.6467   87.8742   10.6515 C.ar    1  UNL1        0.1464
      7 C          62.8088   88.2998   11.4990 C.ar    1  UNL1        0.0421
      8 O          64.4754   89.0075   14.1681 O.2     1  UNL1       -0.2698
      9 C          63.8743   89.9663   13.1836 C.2     1  UNL1        0.2507
     10 N          64.4353   91.3506   13.0465 N.am    1  UNL1       -0.2658
     11 H          64.0407   91.9799   12.4003 H       1  UNL1        0.1566
     12 C          65.5975   91.7762   13.8940 C.ar    1  UNL1        0.1345
     13 C          66.9858   91.7584   13.3264 C.ar    1  UNL1        0.0368
     14 C          68.1480   92.1840   14.1739 C.ar    1  UNL1        0.0341
     15 C          67.9218   92.6274   15.5889 C.ar    1  UNL1        0.1593
     16 F          69.0840   93.0529   16.4364 F       1  UNL1       -0.2025
     17 C          66.5335   92.6451   16.1565 C.ar    1  UNL1        0.1298
     18 N          65.3713   92.2196   15.3090 N.ar    1  UNL1       -0.2267
     19 O          61.7435   86.6332    9.8145 O.3     1  UNL1       -0.4518
     20 C          62.4322   85.4155   10.3555 C.ar    1  UNL1        0.1666
     21 C          63.3025   84.5855    9.4589 C.ar    1  UNL1        0.1364
     22 N          63.9912   83.3677    9.9999 N.ar    1  UNL1       -0.2368
     23 C          63.8097   82.9799   11.4374 C.ar    1  UNL1        0.1286
     24 C          62.9395   83.8098   12.3340 C.ar    1  UNL1        0.1623
     25 F          62.7579   83.4219   13.7716 F       1  UNL1       -0.2024
     26 C          62.2507   85.0276   11.7930 C.ar    1  UNL1        0.0703
@<TRIPOS>BOND
     1     8     9    2
     2     9    10   am
     3    10    12    1
     4    12    13   ar
     5    13    14   ar
     6    14    15   ar
     7    15    16    1
     8    15    17   ar
     9    17    18   ar
    10     9     1    1
    11     1     2   ar
    12     2     3   ar
    13     3     4    1
    14     3     5   ar
    15     5     6   ar
    16     6    19    1
    17    19    20    1
    18    20    21   ar
    19    21    22   ar
    20    22    23   ar
    21    23    24   ar
    22    24    25    1
    23    24    26   ar
    24     6     7   ar
    25    18    12   ar
    26     7     1   ar
    27    26    20   ar
    28    10    11    1
@<TRIPOS>MOLECULE
*****
 26 28 0 0 0
SMALL
GASTEIGER

@<TRIPOS>ATOM
      1 C          64.0125   88.0321   14.9782 C.ar    1  UNL1        0.0576
      2 C          63.4610   88.1398   16.3689 C.ar    1  UNL1        0.0161
      3 C          63.1263   86.8982   17.1412 C.ar    1  UNL1        0.0609
      4 CL         62.5748   87.0058   18.5320 Cl      1  UNL1       -0.0821
      5 C          63.3431   85.5489   16.5226 C.ar    1  UNL1        0.0489
      6 C          63.8946   85.4413   15.1319 C.ar    1  UNL1        0.1464
      7 C          64.2293   86.6829   14.3597 C.ar    1  UNL1        0.0421
      8 O          63.8145   89.4589   12.8159 O.2     1  UNL1       -0.2698
      9 C          64.3472   89.2737   14.2059 C.2     1  UNL1        0.2507
     10 N          65.2147   90.3302   14.8235 N.am    1  UNL1       -0.2658
     11 H          65.5643   90.2086   15.7357 H       1  UNL1        0.1566
     12 C          65.5494   91.5718   14.0512 C.ar    1  UNL1        0.1345
     13 C          66.3303   92.6735   14.7041 C.ar    1  UNL1        0.0368
     14 C          66.6650   93.9150   13.9318 C.ar    1  UNL1        0.0341
     15 C          66.2188   94.0549   12.5066 C.ar    1  UNL1        0.1593
     16 F          66.5535   95.2965   11.7342 F       1  UNL1       -0.2025
     17 C          65.4379   92.9532   11.8536 C.ar    1  UNL1        0.1298
     18 N          65.1032   91.7116   12.6259 N.ar    1  UNL1       -0.2267
     19 O          64.1114   84.0921   14.5134 O.3     1  UNL1       -0.4518
     20 C          63.9581   83.9127   13.0321 C.ar    1  UNL1        0.1666
     21 C          64.8296   82.9350   12.3008 C.ar    1  UNL1        0.1364
     22 N          64.6764   82.7556   10.8195 N.ar    1  UNL1       -0.2368
     23 C          63.6516   83.5539   10.0694 C.ar    1  UNL1        0.1286
     24 C          62.7802   84.5316   10.8006 C.ar    1  UNL1        0.1623
     25 F          61.7555   85.3299   10.0504 F       1  UNL1       -0.2024
     26 C          62.9334   84.7110   12.2820 C.ar    1  UNL1        0.0703
@<TRIPOS>BOND
     1     8     9    2
     2     9    10   am
     3    10    12    1
     4    12    13   ar
     5    13    14   ar
     6    14    15   ar
     7    15    16    1
     8    15    17   ar
     9    17    18   ar
    10     9     1    1
    11     1     2   ar
    12     2     3   ar
    13     3     4    1
    14     3     5   ar
    15     5     6   ar
    16     6    19    1
    17    19    20    1
    18    20    21   ar
    19    21    22   ar
    20    22    23   ar
    21    23    24   ar
    22    24    25    1
    23    24    26   ar
    24     6     7   ar
    25    18    12   ar
    26     7     1   ar
    27    26    20   ar
    28    10    11    1
@<TRIPOS>MOLECULE
*****
 26 28 0 0 0
SMALL
GASTEIGER

@<TRIPOS>ATOM
      1 C          62.6082   89.5641   11.8907 C.ar    1  UNL1        0.0576
      2 C          61.9743   90.2242   10.7023 C.ar    1  UNL1        0.0161
      3 C          61.1040   89.4266    9.7769 C.ar    1  UNL1        0.0609
      4 CL         60.4700   90.0867    8.5885 Cl      1  UNL1       -0.0821
      5 C          60.8678   87.9688   10.0399 C.ar    1  UNL1        0.0489
      6 C          61.5017   87.3087   11.2283 C.ar    1  UNL1        0.1464
      7 C          62.3720   88.1063   12.1537 C.ar    1  UNL1        0.0421
      8 O          63.1248   90.4715   14.2697 O.2     1  UNL1       -0.2698
      9 C          63.4785   90.3617   12.8162 C.2     1  UNL1        0.2507
     10 N          64.7025   91.0495   12.2881 N.am    1  UNL1       -0.2658
     11 H          64.9346   90.9774   11.3341 H       1  UNL1        0.1566
     12 C          65.5728   91.8471   13.2136 C.ar    1  UNL1        0.1345
     13 C          66.2467   91.1762   14.3736 C.ar    1  UNL1        0.0368
     14 C          67.1170   91.9739   15.2990 C.ar    1  UNL1        0.0341
     15 C          67.3133   93.4423   15.0644 C.ar    1  UNL1        0.1593
     16 F          68.1835   94.2400   15.9899 F       1  UNL1       -0.2025
     17 C          66.6393   94.1132   13.9044 C.ar    1  UNL1        0.1298
     18 N          65.7691   93.3156   12.9790 N.ar    1  UNL1       -0.2267
     19 O          61.2655   85.8509   11.4912 O.3     1  UNL1       -0.4518
     20 C          62.4273   84.9366   11.7446 C.ar    1  UNL1        0.1666
     21 C          62.9870   84.8012   13.1297 C.ar    1  UNL1        0.1364
     22 N          64.1487   83.8869   13.3831 N.ar    1  UNL1       -0.2368
     23 C          64.7509   83.1080   12.2514 C.ar    1  UNL1        0.1286
     24 C          64.1913   83.2434   10.8663 C.ar    1  UNL1        0.1623
     25 F          64.7934   82.4644    9.7346 F       1  UNL1       -0.2024
     26 C          63.0294   84.1577   10.6129 C.ar    1  UNL1        0.0703
@<TRIPOS>BOND
     1     8     9    2
     2     9    10   am
     3    10    12    1
     4    12    13   ar
     5    13    14   ar
     6    14    15   ar
     7    15    16    1
     8    15    17   ar
     9    17    18   ar
    10     9     1    1
    11     1     2   ar
    12     2     3   ar
    13     3     4    1
    14     3     5   ar
    15     5     6   ar
    16     6    19    1
    17    19    20    1
    18    20    21   ar
    19    21    22   ar
    20    22    23   ar
    21    23    24   ar
    22    24    25    1
    23    24    26   ar
    24     6     7   ar
    25    18    12   ar
    26     7     1   ar
    27    26    20   ar
    28    10    11    1
