@<TRIPOS>MOLECULE
*****
 31 34 0 0 0
SMALL
GASTEIGER

@<TRIPOS>ATOM
      1 C          62.6102   84.5721   16.0520 C.3     1  UNL1        0.0942
      2 N          62.7115   83.4745   15.0347 N.pl3   1  UNL1       -0.3039
      3 H          62.7084   82.5335   15.3238 H       1  UNL1        0.1496
      4 C          64.2937   81.7066   13.1987 C.3     1  UNL1        0.1363
      5 N          63.6085   82.9268   12.6586 N.ar    1  UNL1       -0.2669
      6 C          62.8174   83.8108   13.5766 C.ar    1  UNL1        0.2002
      7 N          62.1321   85.0310   13.0367 N.ar    1  UNL1       -0.2150
      8 C          62.2380   85.3672   11.5786 C.ar    1  UNL1        0.0895
      9 C          61.5528   86.5874   11.0387 C.ar    1  UNL1        0.0307
     10 C          61.6587   86.9236    9.5807 C.ar    1  UNL1        0.0592
     11 CL         60.9735   88.1438    9.0407 Cl      1  UNL1       -0.0822
     12 C          62.4498   86.0396    8.6627 C.ar    1  UNL1        0.0116
     13 C          63.1351   84.8194    9.2027 C.ar    1  UNL1        0.0071
     14 C          63.0291   84.4832   10.6606 C.ar    1  UNL1        0.0740
     15 C          63.7144   83.2630   11.2007 C.ar    1  UNL1        0.2643
     16 O          64.5055   82.3791   10.2827 O.2     1  UNL1       -0.2668
     17 C          63.7934   85.4524   16.3258 C.3     1  UNL1        0.0476
     18 C          63.7516   86.9037   15.9488 C.ar    1  UNL1       -0.0203
     19 C          63.1252   87.9019   16.8769 C.ar    1  UNL1       -0.0011
     20 C          63.0834   89.3531   16.5001 C.ar    1  UNL1        0.0372
     21 C          63.6679   89.8062   15.1951 C.ar    1  UNL1        0.1472
     22 C          64.2943   88.8081   14.2670 C.ar    1  UNL1        0.0372
     23 C          64.3361   87.3569   14.6439 C.ar    1  UNL1       -0.0011
     24 O          63.6261   91.2576   14.8182 O.3     1  UNL1       -0.4361
     25 C          64.3830   91.7427   13.6174 C.ar    1  UNL1        0.2297
     26 C          63.8755   91.4405   12.2386 C.ar    1  UNL1        0.0590
     27 C          64.6323   91.9256   11.0378 C.ar    1  UNL1        0.0178
     28 C          65.8967   92.7129   11.2159 C.ar    1  UNL1        0.0770
     29 CL         66.6535   93.1980   10.0151 Cl      1  UNL1       -0.0806
     30 C          66.4041   93.0150   12.5947 C.ar    1  UNL1        0.1134
     31 N          65.6473   92.5299   13.7955 N.ar    1  UNL1       -0.2089
@<TRIPOS>BOND
     1     4     5    1
     2     5     6   ar
     3     6     2    1
     4     2     1    1
     5     1    17    1
     6    17    18    1
     7    18    19   ar
     8    19    20   ar
     9    20    21   ar
    10    21    24    1
    11    24    25    1
    12    25    26   ar
    13    26    27   ar
    14    27    28   ar
    15    28    29    1
    16    28    30   ar
    17    30    31   ar
    18    21    22   ar
    19    22    23   ar
    20     6     7   ar
    21     7     8   ar
    22     8     9   ar
    23     9    10   ar
    24    10    11    1
    25    10    12   ar
    26    12    13   ar
    27    13    14   ar
    28    14    15   ar
    29    15    16    2
    30    15     5   ar
    31    23    18   ar
    32    14     8   ar
    33    31    25   ar
    34     2     3    1
@<TRIPOS>MOLECULE
*****
 31 34 0 0 0
SMALL
GASTEIGER

@<TRIPOS>ATOM
      1 C          63.7772   84.3512   15.8003 C.3     1  UNL1        0.0942
      2 N          62.8732   83.6394   14.8379 N.pl3   1  UNL1       -0.3039
      3 H          62.2531   82.9480   15.1645 H       1  UNL1        0.1496
      4 C          64.4718   81.9472   12.9455 C.3     1  UNL1        0.1363
      5 N          63.7133   83.1350   12.4317 N.ar    1  UNL1       -0.2669
      6 C          62.9141   83.9811   13.3778 C.ar    1  UNL1        0.2002
      7 N          62.1556   85.1688   12.8640 N.ar    1  UNL1       -0.2150
      8 C          62.1965   85.5105   11.4040 C.ar    1  UNL1        0.0895
      9 C          61.4381   86.6982   10.8901 C.ar    1  UNL1        0.0307
     10 C          61.4789   87.0398    9.4302 C.ar    1  UNL1        0.0592
     11 CL         60.7205   88.2276    8.9163 Cl      1  UNL1       -0.0822
     12 C          62.2782   86.1937    8.4840 C.ar    1  UNL1        0.0116
     13 C          63.0366   85.0060    8.9978 C.ar    1  UNL1        0.0071
     14 C          62.9957   84.6644   10.4578 C.ar    1  UNL1        0.0740
     15 C          63.7542   83.4766   10.9717 C.ar    1  UNL1        0.2643
     16 O          64.5535   82.6304   10.0255 O.2     1  UNL1       -0.2668
     17 C          63.2529   85.4967   16.6143 C.3     1  UNL1        0.0476
     18 C          63.4716   86.9071   16.1525 C.ar    1  UNL1       -0.0203
     19 C          64.1984   87.1712   14.8672 C.ar    1  UNL1       -0.0011
     20 C          64.4171   88.5814   14.4054 C.ar    1  UNL1        0.0372
     21 C          63.9091   89.7276   15.2289 C.ar    1  UNL1        0.1472
     22 C          63.1823   89.4635   16.5142 C.ar    1  UNL1        0.0372
     23 C          62.9636   88.0532   16.9760 C.ar    1  UNL1       -0.0011
     24 O          64.1278   91.1379   14.7671 O.3     1  UNL1       -0.4361
     25 C          65.4799   91.7719   14.9077 C.ar    1  UNL1        0.2297
     26 C          65.8996   92.3597   16.2224 C.ar    1  UNL1        0.0590
     27 C          67.2517   92.9938   16.3630 C.ar    1  UNL1        0.0178
     28 C          68.1841   93.0400   15.1889 C.ar    1  UNL1        0.0770
     29 CL         69.5362   93.6741   15.3295 Cl      1  UNL1       -0.0806
     30 C          67.7644   92.4523   13.8743 C.ar    1  UNL1        0.1134
     31 N          66.4123   91.8182   13.7337 N.ar    1  UNL1       -0.2089
@<TRIPOS>BOND
     1     4     5    1
     2     5     6   ar
     3     6     2    1
     4     2     1    1
     5     1    17    1
     6    17    18    1
     7    18    19   ar
     8    19    20   ar
     9    20    21   ar
    10    21    24    1
    11    24    25    1
    12    25    26   ar
    13    26    27   ar
    14    27    28   ar
    15    28    29    1
    16    28    30   ar
    17    30    31   ar
    18    21    22   ar
    19    22    23   ar
    20     6     7   ar
    21     7     8   ar
    22     8     9   ar
    23     9    10   ar
    24    10    11    1
    25    10    12   ar
    26    12    13   ar
    27    13    14   ar
    28    14    15   ar
    29    15    16    2
    30    15     5   ar
    31    23    18   ar
    32    14     8   ar
    33    31    25   ar
    34     2     3    1
@<TRIPOS>MOLECULE
*****
 31 34 0 0 0
SMALL
GASTEIGER

@<TRIPOS>ATOM
      1 C          60.2819   89.4980   10.9927 C.3     1  UNL1        0.0942
      2 N          59.8147   88.1056   10.6884 N.pl3   1  UNL1       -0.3039
      3 H          58.8520   87.9158   10.6083 H       1  UNL1        0.1496
      4 C          60.6231   87.2550    7.9274 C.3     1  UNL1        0.1363
      5 N          61.2185   86.5768    9.1256 N.ar    1  UNL1       -0.2669
      6 C          60.8143   87.0021   10.5061 C.ar    1  UNL1        0.2002
      7 N          61.4098   86.3240   11.7042 N.ar    1  UNL1       -0.2150
      8 C          62.4094   85.2205   11.5219 C.ar    1  UNL1        0.0895
      9 C          63.0048   84.5424   12.7201 C.ar    1  UNL1        0.0307
     10 C          64.0044   83.4390   12.5377 C.ar    1  UNL1        0.0592
     11 CL         64.5998   82.7608   13.7359 Cl      1  UNL1       -0.0822
     12 C          64.4085   83.0137   11.1572 C.ar    1  UNL1        0.0116
     13 C          63.8131   83.6918    9.9591 C.ar    1  UNL1        0.0071
     14 C          62.8136   84.7952   10.1414 C.ar    1  UNL1        0.0740
     15 C          62.2181   85.4734    8.9432 C.ar    1  UNL1        0.2643
     16 O          62.6223   85.0481    7.5627 O.2     1  UNL1       -0.2668
     17 C          61.0359   89.7761   12.2593 C.3     1  UNL1        0.0476
     18 C          62.3813   90.4369   12.2015 C.ar    1  UNL1       -0.0203
     19 C          62.8661   91.0401   10.9165 C.ar    1  UNL1       -0.0011
     20 C          64.2114   91.7009   10.8588 C.ar    1  UNL1        0.0372
     21 C          65.0720   91.7585   12.0859 C.ar    1  UNL1        0.1472
     22 C          64.5872   91.1552   13.3709 C.ar    1  UNL1        0.0372
     23 C          63.2419   90.4945   13.4287 C.ar    1  UNL1       -0.0011
     24 O          66.4174   92.4193   12.0282 O.3     1  UNL1       -0.4361
     25 C          66.6668   93.5284   11.0496 C.ar    1  UNL1        0.2297
     26 C          67.3678   93.2426    9.7546 C.ar    1  UNL1        0.0590
     27 C          67.6172   94.3518    8.7761 C.ar    1  UNL1        0.0178
     28 C          67.1656   95.7468    9.0926 C.ar    1  UNL1        0.0770
     29 CL         67.4150   96.8559    8.1140 Cl      1  UNL1       -0.0806
     30 C          66.4647   96.0326   10.3875 C.ar    1  UNL1        0.1134
     31 N          66.2153   94.9234   11.3661 N.ar    1  UNL1       -0.2089
@<TRIPOS>BOND
     1     4     5    1
     2     5     6   ar
     3     6     2    1
     4     2     1    1
     5     1    17    1
     6    17    18    1
     7    18    19   ar
     8    19    20   ar
     9    20    21   ar
    10    21    24    1
    11    24    25    1
    12    25    26   ar
    13    26    27   ar
    14    27    28   ar
    15    28    29    1
    16    28    30   ar
    17    30    31   ar
    18    21    22   ar
    19    22    23   ar
    20     6     7   ar
    21     7     8   ar
    22     8     9   ar
    23     9    10   ar
    24    10    11    1
    25    10    12   ar
    26    12    13   ar
    27    13    14   ar
    28    14    15   ar
    29    15    16    2
    30    15     5   ar
    31    23    18   ar
    32    14     8   ar
    33    31    25   ar
    34     2     3    1
@<TRIPOS>MOLECULE
*****
 31 34 0 0 0
SMALL
GASTEIGER

@<TRIPOS>ATOM
      1 C          62.1907   87.2520   11.2136 C.3     1  UNL1        0.0942
      2 N          63.0881   86.6430   12.2498 N.pl3   1  UNL1       -0.3039
      3 H          63.7137   87.2114   12.7546 H       1  UNL1        0.1496
      4 C          63.0409   85.6305   15.0733 C.3     1  UNL1        0.1363
      5 N          63.0088   84.6617   13.9285 N.ar    1  UNL1       -0.2669
      6 C          63.0325   85.1680   12.5167 C.ar    1  UNL1        0.2002
      7 N          63.0004   84.1993   11.3720 N.ar    1  UNL1       -0.2150
      8 C          62.9448   82.7242   11.6390 C.ar    1  UNL1        0.0895
      9 C          62.9127   81.7555   10.4942 C.ar    1  UNL1        0.0307
     10 C          62.8571   80.2805   10.7612 C.ar    1  UNL1        0.0592
     11 CL         62.8250   79.3117    9.6164 Cl      1  UNL1       -0.0822
     12 C          62.8334   79.7743   12.1730 C.ar    1  UNL1        0.0116
     13 C          62.8655   80.7430   13.3178 C.ar    1  UNL1        0.0071
     14 C          62.9211   82.2179   13.0508 C.ar    1  UNL1        0.0740
     15 C          62.9532   83.1867   14.1956 C.ar    1  UNL1        0.2643
     16 O          62.9295   82.6805   15.6074 O.2     1  UNL1       -0.2668
     17 C          61.7582   88.6824   11.3433 C.3     1  UNL1        0.0476
     18 C          62.7729   89.7500   11.6275 C.ar    1  UNL1       -0.0203
     19 C          63.1487   90.7315   10.5572 C.ar    1  UNL1       -0.0011
     20 C          64.1633   91.7991   10.8413 C.ar    1  UNL1        0.0372
     21 C          64.8022   91.8851   12.1957 C.ar    1  UNL1        0.1472
     22 C          64.4265   90.9036   13.2659 C.ar    1  UNL1        0.0372
     23 C          63.4118   89.8361   12.9818 C.ar    1  UNL1       -0.0011
     24 O          65.8169   92.9527   12.4798 O.3     1  UNL1       -0.4361
     25 C          66.2614   93.8756   11.3841 C.ar    1  UNL1        0.2297
     26 C          67.0982   93.3511   10.2550 C.ar    1  UNL1        0.0590
     27 C          67.5428   94.2740    9.1593 C.ar    1  UNL1        0.0178
     28 C          67.1505   95.7215    9.1926 C.ar    1  UNL1        0.0770
     29 CL         67.5950   96.6444    8.0969 Cl      1  UNL1       -0.0806
     30 C          66.3137   96.2459   10.3216 C.ar    1  UNL1        0.1134
     31 N          65.8692   95.3230   11.4174 N.ar    1  UNL1       -0.2089
@<TRIPOS>BOND
     1     4     5    1
     2     5     6   ar
     3     6     2    1
     4     2     1    1
     5     1    17    1
     6    17    18    1
     7    18    19   ar
     8    19    20   ar
     9    20    21   ar
    10    21    24    1
    11    24    25    1
    12    25    26   ar
    13    26    27   ar
    14    27    28   ar
    15    28    29    1
    16    28    30   ar
    17    30    31   ar
    18    21    22   ar
    19    22    23   ar
    20     6     7   ar
    21     7     8   ar
    22     8     9   ar
    23     9    10   ar
    24    10    11    1
    25    10    12   ar
    26    12    13   ar
    27    13    14   ar
    28    14    15   ar
    29    15    16    2
    30    15     5   ar
    31    23    18   ar
    32    14     8   ar
    33    31    25   ar
    34     2     3    1
@<TRIPOS>MOLECULE
*****
 31 34 0 0 0
SMALL
GASTEIGER

@<TRIPOS>ATOM
      1 C          60.6017   88.2385    9.9691 C.3     1  UNL1        0.0942
      2 N          61.8616   87.5347    9.5601 N.pl3   1  UNL1       -0.3039
      3 H          62.3835   87.8653    8.7936 H       1  UNL1        0.1496
      4 C          63.0733   85.2156    8.0924 C.3     1  UNL1        0.1363
      5 N          62.9321   85.1675    9.5851 N.ar    1  UNL1       -0.2669
      6 C          62.3262   86.3270   10.3189 C.ar    1  UNL1        0.2002
      7 N          62.1850   86.2789   11.8114 N.ar    1  UNL1       -0.2150
      8 C          62.6497   85.0712   12.5702 C.ar    1  UNL1        0.0895
      9 C          62.5084   85.0231   14.0627 C.ar    1  UNL1        0.0307
     10 C          62.9731   83.8155   14.8215 C.ar    1  UNL1        0.0592
     11 CL         62.8319   83.7673   16.3141 Cl      1  UNL1       -0.0822
     12 C          63.5789   82.6559   14.0876 C.ar    1  UNL1        0.0116
     13 C          63.7202   82.7041   12.5951 C.ar    1  UNL1        0.0071
     14 C          63.2555   83.9117   11.8364 C.ar    1  UNL1        0.0740
     15 C          63.3967   83.9598   10.3438 C.ar    1  UNL1        0.2643
     16 O          64.0026   82.8003    9.6100 O.2     1  UNL1       -0.2668
     17 C          60.6464   89.3033   11.0246 C.3     1  UNL1        0.0476
     18 C          61.9270   90.0350   11.2981 C.ar    1  UNL1       -0.0203
     19 C          62.5330   90.9076   10.2393 C.ar    1  UNL1       -0.0011
     20 C          63.8135   91.6393   10.5127 C.ar    1  UNL1        0.0372
     21 C          64.4880   91.4985   11.8451 C.ar    1  UNL1        0.1472
     22 C          63.8819   90.6258   12.9040 C.ar    1  UNL1        0.0372
     23 C          62.6014   89.8941   12.6305 C.ar    1  UNL1       -0.0011
     24 O          65.7685   92.2302   12.1186 O.3     1  UNL1       -0.4361
     25 C          66.2625   93.2647   11.1513 C.ar    1  UNL1        0.2297
     26 C          67.2369   92.8822   10.0768 C.ar    1  UNL1        0.0590
     27 C          67.7308   93.9168    9.1094 C.ar    1  UNL1        0.0178
     28 C          67.2505   95.3338    9.2166 C.ar    1  UNL1        0.0770
     29 CL         67.7445   96.3683    8.2493 Cl      1  UNL1       -0.0806
     30 C          66.2762   95.7162   10.2911 C.ar    1  UNL1        0.1134
     31 N          65.7822   94.6817   11.2584 N.ar    1  UNL1       -0.2089
@<TRIPOS>BOND
     1     4     5    1
     2     5     6   ar
     3     6     2    1
     4     2     1    1
     5     1    17    1
     6    17    18    1
     7    18    19   ar
     8    19    20   ar
     9    20    21   ar
    10    21    24    1
    11    24    25    1
    12    25    26   ar
    13    26    27   ar
    14    27    28   ar
    15    28    29    1
    16    28    30   ar
    17    30    31   ar
    18    21    22   ar
    19    22    23   ar
    20     6     7   ar
    21     7     8   ar
    22     8     9   ar
    23     9    10   ar
    24    10    11    1
    25    10    12   ar
    26    12    13   ar
    27    13    14   ar
    28    14    15   ar
    29    15    16    2
    30    15     5   ar
    31    23    18   ar
    32    14     8   ar
    33    31    25   ar
    34     2     3    1
@<TRIPOS>MOLECULE
*****
 31 34 0 0 0
SMALL
GASTEIGER

@<TRIPOS>ATOM
      1 C          62.1045   87.0212   11.0140 C.3     1  UNL1        0.0942
      2 N          62.7933   86.4620   12.2234 N.pl3   1  UNL1       -0.3039
      3 H          63.2463   87.0661   12.8552 H       1  UNL1        0.1496
      4 C          62.7201   85.4101   15.0320 C.3     1  UNL1        0.1363
      5 N          62.7553   84.4565   13.8746 N.ar    1  UNL1       -0.2669
      6 C          62.7919   84.9825   12.4703 C.ar    1  UNL1        0.2002
      7 N          62.8272   84.0289   11.3130 N.ar    1  UNL1       -0.2150
      8 C          62.8259   82.5493   11.5599 C.ar    1  UNL1        0.0895
      9 C          62.8611   81.5958   10.4025 C.ar    1  UNL1        0.0307
     10 C          62.8598   80.1163   10.6495 C.ar    1  UNL1        0.0592
     11 CL         62.8950   79.1627    9.4921 Cl      1  UNL1       -0.0822
     12 C          62.8232   79.5903   12.0537 C.ar    1  UNL1        0.0116
     13 C          62.7879   80.5439   13.2111 C.ar    1  UNL1        0.0071
     14 C          62.7892   82.0234   12.9641 C.ar    1  UNL1        0.0740
     15 C          62.7540   82.9770   14.1215 C.ar    1  UNL1        0.2643
     16 O          62.7174   82.4510   15.5258 O.2     1  UNL1       -0.2668
     17 C          61.5969   88.4326   11.0255 C.3     1  UNL1        0.0476
     18 C          62.5472   89.5696   11.2585 C.ar    1  UNL1       -0.0203
     19 C          62.8486   90.5342   10.1500 C.ar    1  UNL1       -0.0011
     20 C          63.7989   91.6712   10.3829 C.ar    1  UNL1        0.0372
     21 C          64.4477   91.8435   11.7242 C.ar    1  UNL1        0.1472
     22 C          64.1463   90.8789   12.8327 C.ar    1  UNL1        0.0372
     23 C          63.1960   89.7420   12.5998 C.ar    1  UNL1       -0.0011
     24 O          65.3981   92.9805   11.9572 O.3     1  UNL1       -0.4361
     25 C          66.4051   92.9011   13.0660 C.ar    1  UNL1        0.2297
     26 C          67.6474   92.0783   12.8934 C.ar    1  UNL1        0.0590
     27 C          68.6545   91.9989   14.0023 C.ar    1  UNL1        0.0178
     28 C          68.4192   92.7422   15.2838 C.ar    1  UNL1        0.0770
     29 CL         69.4262   92.6628   16.3926 Cl      1  UNL1       -0.0806
     30 C          67.1769   93.5649   15.4564 C.ar    1  UNL1        0.1134
     31 N          66.1698   93.6443   14.3475 N.ar    1  UNL1       -0.2089
@<TRIPOS>BOND
     1     4     5    1
     2     5     6   ar
     3     6     2    1
     4     2     1    1
     5     1    17    1
     6    17    18    1
     7    18    19   ar
     8    19    20   ar
     9    20    21   ar
    10    21    24    1
    11    24    25    1
    12    25    26   ar
    13    26    27   ar
    14    27    28   ar
    15    28    29    1
    16    28    30   ar
    17    30    31   ar
    18    21    22   ar
    19    22    23   ar
    20     6     7   ar
    21     7     8   ar
    22     8     9   ar
    23     9    10   ar
    24    10    11    1
    25    10    12   ar
    26    12    13   ar
    27    13    14   ar
    28    14    15   ar
    29    15    16    2
    30    15     5   ar
    31    23    18   ar
    32    14     8   ar
    33    31    25   ar
    34     2     3    1
@<TRIPOS>MOLECULE
*****
 31 34 0 0 0
SMALL
GASTEIGER

@<TRIPOS>ATOM
      1 C          59.7157   88.5348   11.5826 C.3     1  UNL1        0.0942
      2 N          60.0671   87.7012   10.3861 N.pl3   1  UNL1       -0.3039
      3 H          59.6341   87.8767    9.5196 H       1  UNL1        0.1496
      4 C          61.2615   86.4774    7.9212 C.3     1  UNL1        0.1363
      5 N          61.6754   85.9882    9.2775 N.ar    1  UNL1       -0.2669
      6 C          61.0782   86.6000   10.5100 C.ar    1  UNL1        0.2002
      7 N          61.4920   86.1108   11.8662 N.ar    1  UNL1       -0.2150
      8 C          62.5030   85.0096   11.9900 C.ar    1  UNL1        0.0895
      9 C          62.9168   84.5204   13.3462 C.ar    1  UNL1        0.0307
     10 C          63.9279   83.4193   13.4700 C.ar    1  UNL1        0.0592
     11 CL         64.3417   82.9300   14.8263 Cl      1  UNL1       -0.0822
     12 C          64.5251   82.8075   12.2375 C.ar    1  UNL1        0.0116
     13 C          64.1113   83.2967   10.8813 C.ar    1  UNL1        0.0071
     14 C          63.1003   84.3978   10.7576 C.ar    1  UNL1        0.0740
     15 C          62.6864   84.8871    9.4013 C.ar    1  UNL1        0.2643
     16 O          63.2837   84.2752    8.1688 O.2     1  UNL1       -0.2668
     17 C          59.9915   90.0092   11.5765 C.3     1  UNL1        0.0476
     18 C          61.4031   90.5078   11.4826 C.ar    1  UNL1       -0.0203
     19 C          61.9315   91.0225   10.1765 C.ar    1  UNL1       -0.0011
     20 C          63.3430   91.5211   10.0826 C.ar    1  UNL1        0.0372
     21 C          64.2262   91.5050   11.2948 C.ar    1  UNL1        0.1472
     22 C          63.6979   90.9904   12.6010 C.ar    1  UNL1        0.0372
     23 C          62.2864   90.4918   12.6949 C.ar    1  UNL1       -0.0011
     24 O          65.6379   92.0036   11.2009 O.3     1  UNL1       -0.4361
     25 C          66.3615   92.4442   12.4388 C.ar    1  UNL1        0.2297
     26 C          67.4614   91.5967   13.0064 C.ar    1  UNL1        0.0590
     27 C          68.1850   92.0373   14.2442 C.ar    1  UNL1        0.0178
     28 C          67.8087   93.3255   14.9145 C.ar    1  UNL1        0.0770
     29 CL         68.5324   93.7661   16.1523 Cl      1  UNL1       -0.0806
     30 C          66.7090   94.1729   14.3469 C.ar    1  UNL1        0.1134
     31 N          65.9853   93.7323   13.1090 N.ar    1  UNL1       -0.2089
@<TRIPOS>BOND
     1     4     5    1
     2     5     6   ar
     3     6     2    1
     4     2     1    1
     5     1    17    1
     6    17    18    1
     7    18    19   ar
     8    19    20   ar
     9    20    21   ar
    10    21    24    1
    11    24    25    1
    12    25    26   ar
    13    26    27   ar
    14    27    28   ar
    15    28    29    1
    16    28    30   ar
    17    30    31   ar
    18    21    22   ar
    19    22    23   ar
    20     6     7   ar
    21     7     8   ar
    22     8     9   ar
    23     9    10   ar
    24    10    11    1
    25    10    12   ar
    26    12    13   ar
    27    13    14   ar
    28    14    15   ar
    29    15    16    2
    30    15     5   ar
    31    23    18   ar
    32    14     8   ar
    33    31    25   ar
    34     2     3    1
