@<TRIPOS>MOLECULE
*****
 33 36 0 0 0
SMALL
GASTEIGER

@<TRIPOS>ATOM
      1 C          63.9270   90.8241   12.0141 C.ar    1  UNL1        0.1534
      2 C          63.0172   90.8643   10.8222 C.ar    1  UNL1        0.0351
      3 C          62.1684   89.6742   10.4861 C.ar    1  UNL1        0.0722
      4 CL         61.2585   89.7144    9.2941 Cl      1  UNL1       -0.0809
      5 C          62.2293   88.4438   11.3418 C.ar    1  UNL1        0.0577
      6 C          63.1391   88.4035   12.5337 C.ar    1  UNL1        0.0462
      7 C          63.9879   89.5936   12.8698 C.ar    1  UNL1        0.1602
      8 F          64.8978   89.5534   14.0618 F       1  UNL1       -0.2027
      9 O          65.2929   92.0431   10.9425 O.2     1  UNL1       -0.1498
     10 S          64.7759   92.0142   12.3502 S.O2    1  UNL1        0.0772
     11 O          64.2589   91.9854   13.7580 O.2     1  UNL1       -0.1498
     12 N          65.6247   93.2044   12.6863 N.pl3   1  UNL1       -0.1936
     13 H          65.4570   94.0688   12.2460 H       1  UNL1        0.1758
     14 C          66.7292   93.0775   13.6934 C.ar    1  UNL1        0.1786
     15 N          66.9340   93.9549   14.8927 N.ar    1  UNL1       -0.2214
     16 C          68.1541   93.4706   15.6184 C.ar    1  UNL1        0.1079
     17 C          68.7035   92.2938   14.8677 C.ar    1  UNL1        0.0588
     18 S          67.8228   92.0509   13.6779 S.2     1  UNL1       -0.0497
     19 N          61.3805   87.2536   11.0057 N.pl3   1  UNL1       -0.3319
     20 H          60.7254   87.3074   10.2727 H       1  UNL1        0.1468
     21 C          61.5297   85.9814   11.7862 C.3     1  UNL1        0.0898
     22 C          62.5804   84.9831   11.3997 C.3     1  UNL1        0.0510
     23 C          62.7081   84.5437    9.9712 C.3     1  UNL1        0.0070
     24 C          63.7589   83.5455    9.5847 C.3     1  UNL1        0.0322
     25 C          64.6819   82.9867   10.6267 C.3     1  UNL1        0.1425
     26 O          64.5542   83.4261   12.0552 O.3     1  UNL1       -0.3518
     27 C          63.5035   84.4243   12.4417 C.3     1  UNL1        0.1390
     28 C          63.3757   84.8638   13.8702 C.ar    1  UNL1        0.0046
     29 C          64.2531   85.9595   14.3991 C.ar    1  UNL1       -0.0019
     30 C          64.1254   86.3989   15.8275 C.ar    1  UNL1       -0.0002
     31 C          63.1203   85.7427   16.7272 C.ar    1  UNL1       -0.0000
     32 C          62.2429   84.6470   16.1983 C.ar    1  UNL1       -0.0002
     33 C          62.3707   84.2076   14.7697 C.ar    1  UNL1       -0.0019
@<TRIPOS>BOND
     1     9    10    2
     2    10    11    2
     3    10    12    1
     4    12    14    1
     5    14    15   ar
     6    15    16   ar
     7    16    17   ar
     8    17    18   ar
     9    10     1    1
    10     1     2   ar
    11     2     3   ar
    12     3     4    1
    13     3     5   ar
    14     5    19    1
    15    19    21    1
    16    22    21    1
    17    22    23    1
    18    23    24    1
    19    24    25    1
    20    25    26    1
    21    26    27    1
    22    27    28    1
    23    28    29   ar
    24    29    30   ar
    25    30    31   ar
    26    31    32   ar
    27    32    33   ar
    28     5     6   ar
    29     6     7   ar
    30     7     8    1
    31    18    14   ar
    32     7     1   ar
    33    27    22    1
    34    33    28   ar
    35    12    13    1
    36    19    20    1
@<TRIPOS>MOLECULE
*****
 33 36 0 0 0
SMALL
GASTEIGER

@<TRIPOS>ATOM
      1 C          65.4066   91.9478   13.0759 C.ar    1  UNL1        0.1534
      2 C          64.2789   91.4038   12.2499 C.ar    1  UNL1        0.0351
      3 C          63.6645   90.0806   12.5983 C.ar    1  UNL1        0.0722
      4 CL         62.5367   89.5365   11.7723 Cl      1  UNL1       -0.0809
      5 C          64.1778   89.3013   13.7727 C.ar    1  UNL1        0.0577
      6 C          65.3055   89.8452   14.5987 C.ar    1  UNL1        0.0462
      7 C          65.9199   91.1685   14.2503 C.ar    1  UNL1        0.1602
      8 F          67.0477   91.7125   15.0763 F       1  UNL1       -0.2027
      9 O          66.2601   92.7913   11.3267 O.2     1  UNL1       -0.1498
     10 S          66.0211   93.2711   12.7276 S.O2    1  UNL1        0.0772
     11 O          65.7820   93.7510   14.1284 O.2     1  UNL1       -0.1498
     12 N          66.6355   94.5944   12.3792 N.pl3   1  UNL1       -0.1936
     13 H          67.0406   95.1498   13.0839 H       1  UNL1        0.1758
     14 C          66.6326   95.0715   10.9570 C.ar    1  UNL1        0.1786
     15 N          67.6529   94.7321    9.9111 N.ar    1  UNL1       -0.2214
     16 C          67.2598   95.4225    8.6388 C.ar    1  UNL1        0.1079
     17 C          65.9966   96.1887    8.8984 C.ar    1  UNL1        0.0588
     18 S          65.6090   95.9717   10.3312 S.2     1  UNL1       -0.0497
     19 N          63.5634   87.9779   14.1211 N.pl3   1  UNL1       -0.3319
     20 H          62.9422   87.9086   14.8817 H       1  UNL1        0.1468
     21 C          63.8953   86.7602   13.3105 C.3     1  UNL1        0.0898
     22 C          63.4085   85.4111   13.7499 C.3     1  UNL1        0.0510
     23 C          63.5891   84.9758   15.1739 C.3     1  UNL1        0.0070
     24 C          63.1023   83.6267   15.6132 C.3     1  UNL1        0.0322
     25 C          62.4348   82.7130   14.6285 C.3     1  UNL1        0.1425
     26 O          62.2542   83.1484   13.2045 O.3     1  UNL1       -0.3518
     27 C          62.7410   84.4974   12.7652 C.3     1  UNL1        0.1390
     28 C          62.5604   84.9329   11.3411 C.ar    1  UNL1        0.0046
     29 C          63.4235   84.3479   10.2628 C.ar    1  UNL1       -0.0019
     30 C          63.2429   84.7833    8.8388 C.ar    1  UNL1       -0.0002
     31 C          62.1991   85.8037    8.4931 C.ar    1  UNL1       -0.0000
     32 C          61.3360   86.3886    9.5714 C.ar    1  UNL1       -0.0002
     33 C          61.5166   85.9532   10.9955 C.ar    1  UNL1       -0.0019
@<TRIPOS>BOND
     1     9    10    2
     2    10    11    2
     3    10    12    1
     4    12    14    1
     5    14    15   ar
     6    15    16   ar
     7    16    17   ar
     8    17    18   ar
     9    10     1    1
    10     1     2   ar
    11     2     3   ar
    12     3     4    1
    13     3     5   ar
    14     5    19    1
    15    19    21    1
    16    22    21    1
    17    22    23    1
    18    23    24    1
    19    24    25    1
    20    25    26    1
    21    26    27    1
    22    27    28    1
    23    28    29   ar
    24    29    30   ar
    25    30    31   ar
    26    31    32   ar
    27    32    33   ar
    28     5     6   ar
    29     6     7   ar
    30     7     8    1
    31    18    14   ar
    32     7     1   ar
    33    27    22    1
    34    33    28   ar
    35    12    13    1
    36    19    20    1
@<TRIPOS>MOLECULE
*****
 33 36 0 0 0
SMALL
GASTEIGER

@<TRIPOS>ATOM
      1 C          64.3396   91.3800   11.8556 C.ar    1  UNL1        0.1534
      2 C          63.3895   91.3684   10.6950 C.ar    1  UNL1        0.0351
      3 C          62.3115   90.3283   10.6187 C.ar    1  UNL1        0.0722
      4 CL         61.3613   90.3166    9.4580 Cl      1  UNL1       -0.0809
      5 C          62.1835   89.2998   11.7031 C.ar    1  UNL1        0.0577
      6 C          63.1335   89.3114   12.8637 C.ar    1  UNL1        0.0462
      7 C          64.2116   90.3515   12.9400 C.ar    1  UNL1        0.1602
      8 F          65.1618   90.3632   14.1007 F       1  UNL1       -0.2027
      9 O          65.0303   92.7176   13.3502 O.2     1  UNL1       -0.1498
     10 S          65.4178   92.4202   11.9320 S.O2    1  UNL1        0.0772
     11 O          65.8052   92.1227   10.5138 O.2     1  UNL1       -0.1498
     12 N          66.4958   93.4603   12.0083 N.pl3   1  UNL1       -0.1936
     13 H          67.0863   93.5004   12.7951 H       1  UNL1        0.1758
     14 C          66.6743   94.4393   10.8860 C.ar    1  UNL1        0.1786
     15 N          67.7780   94.4247    9.8703 N.ar    1  UNL1       -0.2214
     16 C          67.5662   95.5812    8.9389 C.ar    1  UNL1        0.1079
     17 C          66.3316   96.3107    9.3789 C.ar    1  UNL1        0.0588
     18 S          65.7803   95.6049   10.5823 S.2     1  UNL1       -0.0497
     19 N          61.1053   88.2596   11.6267 N.pl3   1  UNL1       -0.3319
     20 H          60.1783   88.5252   11.4282 H       1  UNL1        0.1468
     21 C          61.4396   86.8150   11.8529 C.3     1  UNL1        0.0898
     22 C          62.0967   86.0180   10.7652 C.3     1  UNL1        0.0510
     23 C          61.9356   86.4297    9.3319 C.3     1  UNL1        0.0070
     24 C          62.5928   85.6327    8.2443 C.3     1  UNL1        0.0322
     25 C          63.4110   84.4240    8.5900 C.3     1  UNL1        0.1425
     26 O          63.5722   84.0123   10.0234 O.3     1  UNL1       -0.3518
     27 C          62.9150   84.8093   11.1110 C.3     1  UNL1        0.1390
     28 C          63.0761   84.3976   12.5444 C.ar    1  UNL1        0.0046
     29 C          62.5026   83.0956   13.0198 C.ar    1  UNL1       -0.0019
     30 C          62.6637   82.6839   14.4531 C.ar    1  UNL1       -0.0002
     31 C          63.3982   83.5743   15.4112 C.ar    1  UNL1       -0.0000
     32 C          63.9717   84.8762   14.9358 C.ar    1  UNL1       -0.0002
     33 C          63.8106   85.2879   13.5024 C.ar    1  UNL1       -0.0019
@<TRIPOS>BOND
     1     9    10    2
     2    10    11    2
     3    10    12    1
     4    12    14    1
     5    14    15   ar
     6    15    16   ar
     7    16    17   ar
     8    17    18   ar
     9    10     1    1
    10     1     2   ar
    11     2     3   ar
    12     3     4    1
    13     3     5   ar
    14     5    19    1
    15    19    21    1
    16    22    21    1
    17    22    23    1
    18    23    24    1
    19    24    25    1
    20    25    26    1
    21    26    27    1
    22    27    28    1
    23    28    29   ar
    24    29    30   ar
    25    30    31   ar
    26    31    32   ar
    27    32    33   ar
    28     5     6   ar
    29     6     7   ar
    30     7     8    1
    31    18    14   ar
    32     7     1   ar
    33    27    22    1
    34    33    28   ar
    35    12    13    1
    36    19    20    1
@<TRIPOS>MOLECULE
*****
 33 36 0 0 0
SMALL
GASTEIGER

@<TRIPOS>ATOM
      1 C          63.7422   86.1226   13.8308 C.ar    1  UNL1        0.1534
      2 C          63.1418   86.5008   12.5093 C.ar    1  UNL1        0.0351
      3 C          63.0511   87.9445   12.1125 C.ar    1  UNL1        0.0722
      4 CL         62.4507   88.3228   10.7909 Cl      1  UNL1       -0.0809
      5 C          63.5607   89.0100   13.0372 C.ar    1  UNL1        0.0577
      6 C          64.1611   88.6317   14.3587 C.ar    1  UNL1        0.0462
      7 C          64.2518   87.1880   14.7555 C.ar    1  UNL1        0.1602
      8 F          64.8522   86.8097   16.0771 F       1  UNL1       -0.2027
      9 O          65.3087   84.6981   13.9600 O.2     1  UNL1       -0.1498
     10 S          63.8329   84.6788   14.2276 S.O2    1  UNL1        0.0772
     11 O          62.3571   84.6596   14.4953 O.2     1  UNL1       -0.1498
     12 N          63.9237   83.2352   14.6245 N.pl3   1  UNL1       -0.1936
     13 H          64.3101   82.9874   15.4954 H       1  UNL1        0.1758
     14 C          63.4257   82.1689   13.6943 C.ar    1  UNL1        0.1786
     15 N          62.7913   80.8714   14.0994 N.ar    1  UNL1       -0.2214
     16 C          62.4482   80.1136   12.8512 C.ar    1  UNL1        0.1079
     17 C          62.8706   80.9427   11.6746 C.ar    1  UNL1        0.0588
     18 S          63.4747   82.2130   12.1957 S.2     1  UNL1       -0.0497
     19 N          63.4700   90.4537   12.6403 N.pl3   1  UNL1       -0.3319
     20 H          62.5930   90.8993   12.6012 H       1  UNL1        0.1468
     21 C          64.7155   91.2186   12.3031 C.3     1  UNL1        0.0898
     22 C          65.5206   91.8596   13.3945 C.3     1  UNL1        0.0510
     23 C          65.1441   91.6431   14.8302 C.3     1  UNL1        0.0070
     24 C          65.9492   92.2841   15.9215 C.3     1  UNL1        0.0322
     25 C          67.1307   93.1417   15.5770 C.3     1  UNL1        0.1425
     26 O          67.5071   93.3582   14.1413 O.3     1  UNL1       -0.3518
     27 C          66.7021   92.7172   13.0500 C.3     1  UNL1        0.1390
     28 C          67.0785   92.9336   11.6142 C.ar    1  UNL1        0.0046
     29 C          68.0174   91.9824   10.9334 C.ar    1  UNL1       -0.0019
     30 C          68.3938   92.1988    9.4976 C.ar    1  UNL1       -0.0002
     31 C          67.8313   93.3666    8.7426 C.ar    1  UNL1       -0.0000
     32 C          66.8924   94.3179    9.4234 C.ar    1  UNL1       -0.0002
     33 C          66.5160   94.1014   10.8593 C.ar    1  UNL1       -0.0019
@<TRIPOS>BOND
     1     9    10    2
     2    10    11    2
     3    10    12    1
     4    12    14    1
     5    14    15   ar
     6    15    16   ar
     7    16    17   ar
     8    17    18   ar
     9    10     1    1
    10     1     2   ar
    11     2     3   ar
    12     3     4    1
    13     3     5   ar
    14     5    19    1
    15    19    21    1
    16    22    21    1
    17    22    23    1
    18    23    24    1
    19    24    25    1
    20    25    26    1
    21    26    27    1
    22    27    28    1
    23    28    29   ar
    24    29    30   ar
    25    30    31   ar
    26    31    32   ar
    27    32    33   ar
    28     5     6   ar
    29     6     7   ar
    30     7     8    1
    31    18    14   ar
    32     7     1   ar
    33    27    22    1
    34    33    28   ar
    35    12    13    1
    36    19    20    1
@<TRIPOS>MOLECULE
*****
 33 36 0 0 0
SMALL
GASTEIGER

@<TRIPOS>ATOM
      1 C          65.0610   92.0747   11.9420 C.ar    1  UNL1        0.1534
      2 C          65.1633   91.2165   13.1680 C.ar    1  UNL1        0.0351
      3 C          64.2007   90.0847   13.3736 C.ar    1  UNL1        0.0722
      4 CL         64.3029   89.2264   14.5996 Cl      1  UNL1       -0.0809
      5 C          63.1357   89.8111   12.3533 C.ar    1  UNL1        0.0577
      6 C          63.0334   90.6692   11.1273 C.ar    1  UNL1        0.0462
      7 C          63.9960   91.8011   10.9217 C.ar    1  UNL1        0.1602
      8 F          63.8938   92.6593    9.6957 F       1  UNL1       -0.2027
      9 O          66.4117   92.6346   10.4052 O.2     1  UNL1       -0.1498
     10 S          66.0236   93.2066   11.7364 S.O2    1  UNL1        0.0772
     11 O          65.6355   93.7786   13.0676 O.2     1  UNL1       -0.1498
     12 N          66.9862   94.3384   11.5307 N.pl3   1  UNL1       -0.1936
     13 H          67.7042   94.4991   12.1848 H       1  UNL1        0.1758
     14 C          66.8549   95.2255   10.3282 C.ar    1  UNL1        0.1786
     15 N          67.8298   95.3209    9.1922 N.ar    1  UNL1       -0.2214
     16 C          67.3031   96.3273    8.2126 C.ar    1  UNL1        0.1079
     17 C          66.0026   96.8539    8.7431 C.ar    1  UNL1        0.0588
     18 S          65.7256   96.1729   10.0507 S.2     1  UNL1       -0.0497
     19 N          62.1731   88.6792   12.5589 N.pl3   1  UNL1       -0.3319
     20 H          61.4178   88.7824   13.1819 H       1  UNL1        0.1468
     21 C          62.3613   87.3901   11.8155 C.3     1  UNL1        0.0898
     22 C          61.6016   87.1381   10.5468 C.3     1  UNL1        0.0510
     23 C          60.7260   88.2114    9.9712 C.3     1  UNL1        0.0070
     24 C          59.9663   87.9594    8.7026 C.3     1  UNL1        0.0322
     25 C          60.0822   86.6341    8.0097 C.3     1  UNL1        0.1425
     26 O          60.9578   85.5609    8.5853 O.3     1  UNL1       -0.3518
     27 C          61.7175   85.8129    9.8538 C.3     1  UNL1        0.1390
     28 C          62.5931   84.7395   10.4295 C.ar    1  UNL1        0.0046
     29 C          63.5927   84.0392    9.5575 C.ar    1  UNL1       -0.0019
     30 C          64.4683   82.9659   10.1331 C.ar    1  UNL1       -0.0002
     31 C          64.3444   82.5930   11.5808 C.ar    1  UNL1       -0.0000
     32 C          63.3448   83.2933   12.4528 C.ar    1  UNL1       -0.0002
     33 C          62.4691   84.3666   11.8771 C.ar    1  UNL1       -0.0019
@<TRIPOS>BOND
     1     9    10    2
     2    10    11    2
     3    10    12    1
     4    12    14    1
     5    14    15   ar
     6    15    16   ar
     7    16    17   ar
     8    17    18   ar
     9    10     1    1
    10     1     2   ar
    11     2     3   ar
    12     3     4    1
    13     3     5   ar
    14     5    19    1
    15    19    21    1
    16    22    21    1
    17    22    23    1
    18    23    24    1
    19    24    25    1
    20    25    26    1
    21    26    27    1
    22    27    28    1
    23    28    29   ar
    24    29    30   ar
    25    30    31   ar
    26    31    32   ar
    27    32    33   ar
    28     5     6   ar
    29     6     7   ar
    30     7     8    1
    31    18    14   ar
    32     7     1   ar
    33    27    22    1
    34    33    28   ar
    35    12    13    1
    36    19    20    1
@<TRIPOS>MOLECULE
*****
 33 36 0 0 0
SMALL
GASTEIGER

@<TRIPOS>ATOM
      1 C          62.6367   86.6618   11.7150 C.ar    1  UNL1        0.1534
      2 C          62.0064   87.6745   10.8056 C.ar    1  UNL1        0.0351
      3 C          62.2106   89.1390   11.0579 C.ar    1  UNL1        0.0722
      4 CL         61.5803   90.1518   10.1484 Cl      1  UNL1       -0.0809
      5 C          63.0451   89.5907   12.2196 C.ar    1  UNL1        0.0577
      6 C          63.6753   88.5780   13.1290 C.ar    1  UNL1        0.0462
      7 C          63.4712   87.1135   12.8767 C.ar    1  UNL1        0.1602
      8 F          64.1015   86.1007   13.7862 F       1  UNL1       -0.2027
      9 O          62.9285   85.3702   10.0577 O.2     1  UNL1       -0.1498
     10 S          62.4325   85.1973   11.4627 S.O2    1  UNL1        0.0772
     11 O          61.9365   85.0244   12.8677 O.2     1  UNL1       -0.1498
     12 N          62.2284   83.7329   11.2104 N.pl3   1  UNL1       -0.1936
     13 H          61.7359   83.4349   10.4117 H       1  UNL1        0.1758
     14 C          62.7746   82.7223   12.1751 C.ar    1  UNL1        0.1786
     15 N          61.9788   81.6842   12.9092 N.ar    1  UNL1       -0.2214
     16 C          62.9250   80.8928   13.7627 C.ar    1  UNL1        0.1079
     17 C          64.3056   81.4417   13.5561 C.ar    1  UNL1        0.0588
     18 S          64.2126   82.5725   12.5748 S.2     1  UNL1       -0.0497
     19 N          63.2492   91.0552   12.4719 N.pl3   1  UNL1       -0.3319
     20 H          62.5230   91.5934   12.8619 H       1  UNL1        0.1468
     21 C          64.5598   91.6996   12.1299 C.3     1  UNL1        0.0898
     22 C          65.5178   92.0763   13.2210 C.3     1  UNL1        0.0510
     23 C          65.1665   91.8056   14.6539 C.3     1  UNL1        0.0070
     24 C          66.1244   92.1823   15.7450 C.3     1  UNL1        0.0322
     25 C          67.4336   92.8297   15.4031 C.3     1  UNL1        0.1425
     26 O          67.7849   93.1003   13.9702 O.3     1  UNL1       -0.3518
     27 C          66.8270   92.7236   12.8792 C.3     1  UNL1        0.1390
     28 C          67.1783   92.9943   11.4461 C.ar    1  UNL1        0.0046
     29 C          66.6316   94.2090   10.7565 C.ar    1  UNL1       -0.0019
     30 C          66.9829   94.4797    9.3236 C.ar    1  UNL1       -0.0002
     31 C          67.8808   93.5356    8.5802 C.ar    1  UNL1       -0.0000
     32 C          68.4275   92.3209    9.2699 C.ar    1  UNL1       -0.0002
     33 C          68.0762   92.0502   10.7029 C.ar    1  UNL1       -0.0019
@<TRIPOS>BOND
     1     9    10    2
     2    10    11    2
     3    10    12    1
     4    12    14    1
     5    14    15   ar
     6    15    16   ar
     7    16    17   ar
     8    17    18   ar
     9    10     1    1
    10     1     2   ar
    11     2     3   ar
    12     3     4    1
    13     3     5   ar
    14     5    19    1
    15    19    21    1
    16    22    21    1
    17    22    23    1
    18    23    24    1
    19    24    25    1
    20    25    26    1
    21    26    27    1
    22    27    28    1
    23    28    29   ar
    24    29    30   ar
    25    30    31   ar
    26    31    32   ar
    27    32    33   ar
    28     5     6   ar
    29     6     7   ar
    30     7     8    1
    31    18    14   ar
    32     7     1   ar
    33    27    22    1
    34    33    28   ar
    35    12    13    1
    36    19    20    1
@<TRIPOS>MOLECULE
*****
 33 36 0 0 0
SMALL
GASTEIGER

@<TRIPOS>ATOM
      1 C          63.3487   85.3157   15.1737 C.ar    1  UNL1        0.1534
      2 C          63.0874   86.1794   16.3719 C.ar    1  UNL1        0.0351
      3 C          63.3848   87.6486   16.3165 C.ar    1  UNL1        0.0722
      4 CL         63.1235   88.5124   17.5147 Cl      1  UNL1       -0.0809
      5 C          63.9434   88.2540   15.0629 C.ar    1  UNL1        0.0577
      6 C          64.2047   87.3902   13.8647 C.ar    1  UNL1        0.0462
      7 C          63.9073   85.9211   13.9202 C.ar    1  UNL1        0.1602
      8 F          64.1686   85.0573   12.7220 F       1  UNL1       -0.2027
      9 O          61.5874   84.1372   15.0798 O.2     1  UNL1       -0.1498
     10 S          63.0513   83.8464   15.2291 S.O2    1  UNL1        0.0772
     11 O          64.5152   83.5557   15.3784 O.2     1  UNL1       -0.1498
     12 N          62.7539   82.3773   15.2844 N.pl3   1  UNL1       -0.1936
     13 H          62.5765   81.9433   16.1501 H       1  UNL1        0.1758
     14 C          62.7268   81.5694   14.0208 C.ar    1  UNL1        0.1786
     15 N          62.4949   80.0906   13.9246 N.ar    1  UNL1       -0.2214
     16 C          62.5517   79.7058   12.4759 C.ar    1  UNL1        0.1079
     17 C          62.8187   80.9468   11.6768 C.ar    1  UNL1        0.0588
     18 S          62.9270   82.0986   12.6316 S.2     1  UNL1       -0.0497
     19 N          64.2407   89.7232   15.0075 N.pl3   1  UNL1       -0.3319
     20 H          64.9612   90.1009   15.5621 H       1  UNL1        0.1468
     21 C          63.4404   90.6170   14.1073 C.3     1  UNL1        0.0898
     22 C          64.0989   91.2884   12.9387 C.3     1  UNL1        0.0510
     23 C          65.2690   92.2005   13.1594 C.3     1  UNL1        0.0070
     24 C          65.9275   92.8719   11.9908 C.3     1  UNL1        0.0322
     25 C          65.4159   92.6311   10.6015 C.3     1  UNL1        0.1425
     26 O          64.2458   91.7189   10.3808 O.3     1  UNL1       -0.3518
     27 C          63.5873   91.0476   11.5493 C.3     1  UNL1        0.1390
     28 C          62.4171   90.1354   11.3286 C.ar    1  UNL1        0.0046
     29 C          61.0271   90.6971   11.2798 C.ar    1  UNL1       -0.0019
     30 C          59.8569   89.7850   11.0591 C.ar    1  UNL1       -0.0002
     31 C          60.0767   88.3111   10.8873 C.ar    1  UNL1       -0.0000
     32 C          61.4668   87.7494   10.9361 C.ar    1  UNL1       -0.0002
     33 C          62.6369   88.6616   11.1568 C.ar    1  UNL1       -0.0019
@<TRIPOS>BOND
     1     9    10    2
     2    10    11    2
     3    10    12    1
     4    12    14    1
     5    14    15   ar
     6    15    16   ar
     7    16    17   ar
     8    17    18   ar
     9    10     1    1
    10     1     2   ar
    11     2     3   ar
    12     3     4    1
    13     3     5   ar
    14     5    19    1
    15    19    21    1
    16    22    21    1
    17    22    23    1
    18    23    24    1
    19    24    25    1
    20    25    26    1
    21    26    27    1
    22    27    28    1
    23    28    29   ar
    24    29    30   ar
    25    30    31   ar
    26    31    32   ar
    27    32    33   ar
    28     5     6   ar
    29     6     7   ar
    30     7     8    1
    31    18    14   ar
    32     7     1   ar
    33    27    22    1
    34    33    28   ar
    35    12    13    1
    36    19    20    1
@<TRIPOS>MOLECULE
*****
 33 36 0 0 0
SMALL
GASTEIGER

@<TRIPOS>ATOM
      1 C          63.6930   86.4936   14.5540 C.ar    1  UNL1        0.1534
      2 C          63.7155   87.5089   15.6578 C.ar    1  UNL1        0.0351
      3 C          63.6494   88.9717   15.3326 C.ar    1  UNL1        0.0722
      4 CL         63.6719   89.9872   16.4365 Cl      1  UNL1       -0.0809
      5 C          63.5608   89.4192   13.9037 C.ar    1  UNL1        0.0577
      6 C          63.5383   88.4038   12.7998 C.ar    1  UNL1        0.0462
      7 C          63.6044   86.9410   13.1250 C.ar    1  UNL1        0.1602
      8 F          63.5819   85.9255   12.0211 F       1  UNL1       -0.2027
      9 O          62.2696   85.0022   15.0537 O.2     1  UNL1       -0.1498
     10 S          63.7591   85.0306   14.8791 S.O2    1  UNL1        0.0772
     11 O          65.2486   85.0591   14.7045 O.2     1  UNL1       -0.1498
     12 N          63.8251   83.5678   15.2042 N.pl3   1  UNL1       -0.1936
     13 H          64.1776   83.2725   16.0747 H       1  UNL1        0.1758
     14 C          63.3541   82.5550   14.2030 C.ar    1  UNL1        0.1786
     15 N          62.5078   81.3520   14.4972 N.ar    1  UNL1       -0.2214
     16 C          62.2773   80.6208   13.2079 C.ar    1  UNL1        0.1079
     17 C          62.9812   81.3720   12.1168 C.ar    1  UNL1        0.0588
     18 S          63.6467   82.5674   12.7319 S.2     1  UNL1       -0.0497
     19 N          63.4947   90.8821   13.5785 N.pl3   1  UNL1       -0.3319
     20 H          62.6588   91.3814   13.7240 H       1  UNL1        0.1468
     21 C          64.7022   91.5842   13.0318 C.3     1  UNL1        0.0898
     22 C          65.7348   92.1394   13.9677 C.3     1  UNL1        0.0510
     23 C          65.5449   92.0192   15.4507 C.3     1  UNL1        0.0070
     24 C          66.5774   92.5745   16.3864 C.3     1  UNL1        0.0322
     25 C          67.7998   93.2498   15.8391 C.3     1  UNL1        0.1425
     26 O          67.9897   93.3700   14.3560 O.3     1  UNL1       -0.3518
     27 C          66.9572   92.8148   13.4203 C.3     1  UNL1        0.1390
     28 C          67.1471   92.9349   11.9372 C.ar    1  UNL1        0.0046
     29 C          66.4780   94.0456   11.1830 C.ar    1  UNL1       -0.0019
     30 C          66.6679   94.1657    9.6999 C.ar    1  UNL1       -0.0002
     31 C          67.5268   93.1752    8.9710 C.ar    1  UNL1       -0.0000
     32 C          68.1958   92.0646    9.7252 C.ar    1  UNL1       -0.0002
     33 C          68.0060   91.9444   11.2084 C.ar    1  UNL1       -0.0019
@<TRIPOS>BOND
     1     9    10    2
     2    10    11    2
     3    10    12    1
     4    12    14    1
     5    14    15   ar
     6    15    16   ar
     7    16    17   ar
     8    17    18   ar
     9    10     1    1
    10     1     2   ar
    11     2     3   ar
    12     3     4    1
    13     3     5   ar
    14     5    19    1
    15    19    21    1
    16    22    21    1
    17    22    23    1
    18    23    24    1
    19    24    25    1
    20    25    26    1
    21    26    27    1
    22    27    28    1
    23    28    29   ar
    24    29    30   ar
    25    30    31   ar
    26    31    32   ar
    27    32    33   ar
    28     5     6   ar
    29     6     7   ar
    30     7     8    1
    31    18    14   ar
    32     7     1   ar
    33    27    22    1
    34    33    28   ar
    35    12    13    1
    36    19    20    1
@<TRIPOS>MOLECULE
*****
 33 36 0 0 0
SMALL
GASTEIGER

@<TRIPOS>ATOM
      1 C          62.6820   86.7513   11.8100 C.ar    1  UNL1        0.1534
      2 C          63.4911   87.1233   13.0171 C.ar    1  UNL1        0.0351
      3 C          63.7188   88.5677   13.3513 C.ar    1  UNL1        0.0722
      4 CL         64.5279   88.9398   14.5584 Cl      1  UNL1       -0.0809
      5 C          63.1374   89.6402   12.4784 C.ar    1  UNL1        0.0577
      6 C          62.3283   89.2682   11.2714 C.ar    1  UNL1        0.0462
      7 C          62.1006   87.8238   10.9372 C.ar    1  UNL1        0.1602
      8 F          61.2915   87.4517    9.7301 F       1  UNL1       -0.2027
      9 O          61.9773   85.0581   12.8760 O.2     1  UNL1       -0.1498
     10 S          62.4542   85.3068   11.4758 S.O2    1  UNL1        0.0772
     11 O          62.9312   85.5556   10.0756 O.2     1  UNL1       -0.1498
     12 N          62.2265   83.8624   11.1416 N.pl3   1  UNL1       -0.1936
     13 H          61.7149   83.6181   10.3367 H       1  UNL1        0.1758
     14 C          62.7782   82.7901   12.0338 C.ar    1  UNL1        0.1786
     15 N          61.9815   81.7302   12.7351 N.ar    1  UNL1       -0.2214
     16 C          62.9344   80.8746   13.5160 C.ar    1  UNL1        0.1079
     17 C          64.3201   81.4057   13.2973 C.ar    1  UNL1        0.0588
     18 S          64.2236   82.5896   12.3812 S.2     1  UNL1       -0.0497
     19 N          63.3652   91.0847   12.8127 N.pl3   1  UNL1       -0.3319
     20 H          62.6781   91.5905   13.3040 H       1  UNL1        0.1468
     21 C          64.6396   91.7584   12.3983 C.3     1  UNL1        0.0898
     22 C          65.6299   92.1940   13.4374 C.3     1  UNL1        0.0510
     23 C          65.3289   91.9898   14.8926 C.3     1  UNL1        0.0070
     24 C          66.3192   92.4254   15.9316 C.3     1  UNL1        0.0322
     25 C          67.6105   93.0652   15.5154 C.3     1  UNL1        0.1425
     26 O          67.9115   93.2694   14.0602 O.3     1  UNL1       -0.3518
     27 C          66.9212   92.8338   13.0212 C.3     1  UNL1        0.1390
     28 C          67.2222   93.0380   11.5659 C.ar    1  UNL1        0.0046
     29 C          68.0774   92.0488   10.8309 C.ar    1  UNL1       -0.0019
     30 C          68.3784   92.2529    9.3757 C.ar    1  UNL1       -0.0002
     31 C          67.8242   93.4463    8.6554 C.ar    1  UNL1       -0.0000
     32 C          66.9691   94.4355    9.3904 C.ar    1  UNL1       -0.0002
     33 C          66.6681   94.2313   10.8457 C.ar    1  UNL1       -0.0019
@<TRIPOS>BOND
     1     9    10    2
     2    10    11    2
     3    10    12    1
     4    12    14    1
     5    14    15   ar
     6    15    16   ar
     7    16    17   ar
     8    17    18   ar
     9    10     1    1
    10     1     2   ar
    11     2     3   ar
    12     3     4    1
    13     3     5   ar
    14     5    19    1
    15    19    21    1
    16    22    21    1
    17    22    23    1
    18    23    24    1
    19    24    25    1
    20    25    26    1
    21    26    27    1
    22    27    28    1
    23    28    29   ar
    24    29    30   ar
    25    30    31   ar
    26    31    32   ar
    27    32    33   ar
    28     5     6   ar
    29     6     7   ar
    30     7     8    1
    31    18    14   ar
    32     7     1   ar
    33    27    22    1
    34    33    28   ar
    35    12    13    1
    36    19    20    1
