@<TRIPOS>MOLECULE
*****
 31 33 0 0 0
SMALL
GASTEIGER

@<TRIPOS>ATOM
      1 C          60.8181   88.0646    9.0320 C.3     1  UNL1        0.0328
      2 C          61.6011   88.7073   10.1382 C.ar    1  UNL1        0.0003
      3 C          61.7012   90.2020   10.2159 C.ar    1  UNL1       -0.0011
      4 C          62.4842   90.8447   11.3221 C.ar    1  UNL1        0.0188
      5 C          63.1672   89.9929   12.3506 C.ar    1  UNL1        0.0814
      6 N          63.0671   88.4983   12.2729 N.ar    1  UNL1       -0.2411
      7 C          62.2841   87.8555   11.1667 C.ar    1  UNL1        0.1307
      8 C          63.9502   90.6357   13.4568 C.ar    1  UNL1        0.0174
      9 C          63.4600   90.5481   14.8717 C.ar    1  UNL1        0.0015
     10 C          64.2431   91.1909   15.9779 C.ar    1  UNL1       -0.0002
     11 C          65.5163   91.9212   15.6692 C.ar    1  UNL1       -0.0019
     12 C          66.0065   92.0088   14.2543 C.ar    1  UNL1        0.0070
     13 C          65.2235   91.3660   13.1481 C.ar    1  UNL1       -0.0004
     14 C          67.2799   92.7392   13.9455 C.3     1  UNL1        0.1636
     15 O          68.5493   91.9719   13.7219 O.3     1  UNL1       -0.3772
     16 H          68.8104   91.5316   14.5458 H       1  UNL1        0.2109
     17 C          62.1841   86.3608   11.0890 C.2     1  UNL1        0.2669
     18 O          61.0306   85.7225   10.3733 O.2     1  UNL1       -0.2682
     19 N          63.2375   85.5045   11.7269 N.am    1  UNL1       -0.2797
     20 H          63.9945   85.9234   12.1966 H       1  UNL1        0.1552
     21 C          63.1374   84.0098   11.6493 C.ar    1  UNL1        0.0426
     22 C          63.4785   83.3007   10.3722 C.ar    1  UNL1       -0.0087
     23 C          63.9196   84.0862    9.1729 C.3     1  UNL1        0.0323
     24 C          63.3785   81.8061   10.2945 C.ar    1  UNL1       -0.0030
     25 C          62.9374   81.0206   11.4938 C.ar    1  UNL1        0.0006
     26 C          62.5963   81.7297   12.7709 C.ar    1  UNL1        0.0112
     27 C          62.6963   83.2243   12.8486 C.ar    1  UNL1       -0.0076
     28 C          62.3552   83.9334   14.1256 C.3     1  UNL1        0.0324
     29 C          62.1552   80.9441   13.9702 C.2     1  UNL1        0.0726
     30 O          60.7326   81.0262   14.4388 O.co2   1  UNL1       -0.5446
     31 O          63.1366   80.0765   14.7009 O.co2   1  UNL1       -0.5446
@<TRIPOS>UNITY_ATOM_ATTR
30 1
charge -1
@<TRIPOS>BOND
     1     1     2    1
     2     2     3   ar
     3     3     4   ar
     4     4     5   ar
     5     5     8    1
     6     8     9   ar
     7     9    10   ar
     8    10    11   ar
     9    11    12   ar
    10    12    14    1
    11    14    15    1
    12    12    13   ar
    13     5     6   ar
    14     6     7   ar
    15     7    17    1
    16    17    18    2
    17    17    19   am
    18    19    21    1
    19    21    22   ar
    20    22    23    1
    21    22    24   ar
    22    24    25   ar
    23    25    26   ar
    24    26    29    1
    25    29    30   ar
    26    29    31   ar
    27    26    27   ar
    28    27    28    1
    29     7     2   ar
    30    27    21   ar
    31    13     8   ar
    32    15    16    1
    33    19    20    1
@<TRIPOS>MOLECULE
*****
 31 33 0 0 0
SMALL
GASTEIGER

@<TRIPOS>ATOM
      1 C          61.4071   90.2105   10.0222 C.3     1  UNL1        0.0328
      2 C          61.7571   88.7847   10.3300 C.ar    1  UNL1        0.0003
      3 C          61.3352   87.6903    9.3950 C.ar    1  UNL1       -0.0011
      4 C          61.6851   86.2646    9.7027 C.ar    1  UNL1        0.0188
      5 C          62.4570   85.9332   10.9454 C.ar    1  UNL1        0.0814
      6 N          62.8788   87.0276   11.8804 N.ar    1  UNL1       -0.2411
      7 C          62.5289   88.4534   11.5727 C.ar    1  UNL1        0.1307
      8 C          62.8069   84.5074   11.2532 C.ar    1  UNL1        0.0174
      9 C          63.5331   83.6772   10.2367 C.ar    1  UNL1        0.0015
     10 C          63.8831   82.2514   10.5444 C.ar    1  UNL1       -0.0002
     11 C          63.5068   81.6559   11.8686 C.ar    1  UNL1       -0.0019
     12 C          62.7806   82.4860   12.8851 C.ar    1  UNL1        0.0070
     13 C          62.4306   83.9118   12.5774 C.ar    1  UNL1       -0.0004
     14 C          62.4043   81.8905   14.2095 C.3     1  UNL1        0.1636
     15 O          62.6739   82.6475   15.4760 O.3     1  UNL1       -0.3772
     16 H          63.6316   82.7342   15.6033 H       1  UNL1        0.2109
     17 C          62.9508   89.5478   12.5078 C.2     1  UNL1        0.2669
     18 O          62.2884   90.8917   12.4368 O.2     1  UNL1       -0.2682
     19 N          64.0351   89.2982   13.5138 N.am    1  UNL1       -0.2797
     20 H          64.4698   88.4161   13.5603 H       1  UNL1        0.1552
     21 C          64.4570   90.3927   14.4488 C.ar    1  UNL1        0.0426
     22 C          63.9085   90.4399   15.8442 C.ar    1  UNL1       -0.0087
     23 C          62.9381   89.3927   16.3044 C.3     1  UNL1        0.0323
     24 C          64.3303   91.5342   16.7792 C.ar    1  UNL1       -0.0030
     25 C          65.3007   92.5813   16.3190 C.ar    1  UNL1        0.0006
     26 C          65.8492   92.5341   14.9236 C.ar    1  UNL1        0.0112
     27 C          65.4273   91.4398   13.9886 C.ar    1  UNL1       -0.0076
     28 C          65.9758   91.3926   12.5933 C.3     1  UNL1        0.0324
     29 C          66.8196   93.5813   14.4634 C.2     1  UNL1        0.0726
     30 O          68.2615   93.4975   14.8684 O.co2   1  UNL1       -0.5446
     31 O          66.3481   94.7123   13.5983 O.co2   1  UNL1       -0.5446
@<TRIPOS>UNITY_ATOM_ATTR
30 1
charge -1
@<TRIPOS>BOND
     1     1     2    1
     2     2     3   ar
     3     3     4   ar
     4     4     5   ar
     5     5     8    1
     6     8     9   ar
     7     9    10   ar
     8    10    11   ar
     9    11    12   ar
    10    12    14    1
    11    14    15    1
    12    12    13   ar
    13     5     6   ar
    14     6     7   ar
    15     7    17    1
    16    17    18    2
    17    17    19   am
    18    19    21    1
    19    21    22   ar
    20    22    23    1
    21    22    24   ar
    22    24    25   ar
    23    25    26   ar
    24    26    29    1
    25    29    30   ar
    26    29    31   ar
    27    26    27   ar
    28    27    28    1
    29     7     2   ar
    30    27    21   ar
    31    13     8   ar
    32    15    16    1
    33    19    20    1
@<TRIPOS>MOLECULE
*****
 31 33 0 0 0
SMALL
GASTEIGER

@<TRIPOS>ATOM
      1 C          60.6033   90.5124   10.8359 C.3     1  UNL1        0.0328
      2 C          61.1333   89.1181   10.9947 C.ar    1  UNL1        0.0003
      3 C          60.4250   87.9677   10.3430 C.ar    1  UNL1       -0.0011
      4 C          60.9550   86.5735   10.5017 C.ar    1  UNL1        0.0188
      5 C          62.1934   86.3297   11.3123 C.ar    1  UNL1        0.0814
      6 N          62.9017   87.4801   11.9640 N.ar    1  UNL1       -0.2411
      7 C          62.3717   88.8743   11.8052 C.ar    1  UNL1        0.1307
      8 C          62.7234   84.9355   11.4710 C.ar    1  UNL1        0.0174
      9 C          63.2595   84.1968   10.2807 C.ar    1  UNL1        0.0015
     10 C          63.7895   82.8026   10.4395 C.ar    1  UNL1       -0.0002
     11 C          63.7834   82.1470   11.7886 C.ar    1  UNL1       -0.0019
     12 C          63.2474   82.8857   12.9789 C.ar    1  UNL1        0.0070
     13 C          62.7173   84.2799   12.8201 C.ar    1  UNL1       -0.0004
     14 C          63.2413   82.2301   14.3281 C.3     1  UNL1        0.1636
     15 O          62.1564   81.2575   14.6845 O.3     1  UNL1       -0.3772
     16 H          61.3061   81.7226   14.7261 H       1  UNL1        0.2109
     17 C          63.0801   90.0247   12.4570 C.2     1  UNL1        0.2669
     18 O          62.4491   90.7328   13.6191 O.2     1  UNL1       -0.2682
     19 N          64.4194   90.4671   11.9467 N.am    1  UNL1       -0.2797
     20 H          64.8335   90.0024   11.1839 H       1  UNL1        0.1552
     21 C          65.1278   91.6175   12.5985 C.ar    1  UNL1        0.0426
     22 C          65.5420   91.5252   14.0372 C.ar    1  UNL1       -0.0087
     23 C          65.2478   90.2825   14.8241 C.3     1  UNL1        0.0323
     24 C          66.2504   92.6756   14.6890 C.ar    1  UNL1       -0.0030
     25 C          66.5445   93.9182   13.9021 C.ar    1  UNL1        0.0006
     26 C          66.1304   94.0105   12.4633 C.ar    1  UNL1        0.0112
     27 C          65.4220   92.8601   11.8115 C.ar    1  UNL1       -0.0076
     28 C          65.0078   92.9524   10.3728 C.3     1  UNL1        0.0324
     29 C          66.4246   95.2532   11.6764 C.2     1  UNL1        0.0726
     30 O          67.3097   95.1833   10.4674 O.co2   1  UNL1       -0.5446
     31 O          65.8337   96.5657   12.0985 O.co2   1  UNL1       -0.5446
@<TRIPOS>UNITY_ATOM_ATTR
30 1
charge -1
@<TRIPOS>BOND
     1     1     2    1
     2     2     3   ar
     3     3     4   ar
     4     4     5   ar
     5     5     8    1
     6     8     9   ar
     7     9    10   ar
     8    10    11   ar
     9    11    12   ar
    10    12    14    1
    11    14    15    1
    12    12    13   ar
    13     5     6   ar
    14     6     7   ar
    15     7    17    1
    16    17    18    2
    17    17    19   am
    18    19    21    1
    19    21    22   ar
    20    22    23    1
    21    22    24   ar
    22    24    25   ar
    23    25    26   ar
    24    26    29    1
    25    29    30   ar
    26    29    31   ar
    27    26    27   ar
    28    27    28    1
    29     7     2   ar
    30    27    21   ar
    31    13     8   ar
    32    15    16    1
    33    19    20    1
@<TRIPOS>MOLECULE
*****
 31 33 0 0 0
SMALL
GASTEIGER

@<TRIPOS>ATOM
      1 C          61.7415   87.9443    9.6345 C.3     1  UNL1        0.0328
      2 C          62.4503   88.6989   10.7199 C.ar    1  UNL1        0.0003
      3 C          62.8025   90.1434   10.5221 C.ar    1  UNL1       -0.0011
      4 C          63.5113   90.8980   11.6075 C.ar    1  UNL1        0.0188
      5 C          63.8680   90.2081   12.8907 C.ar    1  UNL1        0.0814
      6 N          63.5158   88.7635   13.0885 N.ar    1  UNL1       -0.2411
      7 C          62.8070   88.0089   12.0031 C.ar    1  UNL1        0.1307
      8 C          64.5768   90.9627   13.9761 C.ar    1  UNL1        0.0174
      9 C          63.9281   91.1331   15.3178 C.ar    1  UNL1        0.0015
     10 C          64.6369   91.8878   16.4032 C.ar    1  UNL1       -0.0002
     11 C          65.9945   92.4719   16.1469 C.ar    1  UNL1       -0.0019
     12 C          66.6433   92.3014   14.8053 C.ar    1  UNL1        0.0070
     13 C          65.9344   91.5468   13.7199 C.ar    1  UNL1       -0.0004
     14 C          68.0009   92.8855   14.5490 C.3     1  UNL1        0.1636
     15 O          69.0703   92.0472   13.9138 O.3     1  UNL1       -0.3772
     16 H          69.3148   91.3255   14.5141 H       1  UNL1        0.2109
     17 C          62.4548   86.5643   12.2010 C.2     1  UNL1        0.2669
     18 O          61.2000   86.0085   11.5954 O.2     1  UNL1       -0.2682
     19 N          63.3573   85.6755   13.0044 N.am    1  UNL1       -0.2797
     20 H          64.1808   86.0403   13.4019 H       1  UNL1        0.1552
     21 C          63.0051   84.2309   13.2023 C.ar    1  UNL1        0.0426
     22 C          62.4707   83.7634   14.5236 C.ar    1  UNL1       -0.0087
     23 C          62.2884   84.7406   15.6470 C.3     1  UNL1        0.0323
     24 C          62.1185   82.3189   14.7215 C.ar    1  UNL1       -0.0030
     25 C          62.3007   81.3418   13.5981 C.ar    1  UNL1        0.0006
     26 C          62.8352   81.8093   12.2768 C.ar    1  UNL1        0.0112
     27 C          63.1873   83.2538   12.0789 C.ar    1  UNL1       -0.0076
     28 C          63.7218   83.7213   10.7576 C.3     1  UNL1        0.0324
     29 C          63.0174   80.8321   11.1534 C.2     1  UNL1        0.0726
     30 O          62.6695   79.3867   11.3527 O.co2   1  UNL1       -0.5446
     31 O          63.5475   81.3004    9.8306 O.co2   1  UNL1       -0.5446
@<TRIPOS>UNITY_ATOM_ATTR
30 1
charge -1
@<TRIPOS>BOND
     1     1     2    1
     2     2     3   ar
     3     3     4   ar
     4     4     5   ar
     5     5     8    1
     6     8     9   ar
     7     9    10   ar
     8    10    11   ar
     9    11    12   ar
    10    12    14    1
    11    14    15    1
    12    12    13   ar
    13     5     6   ar
    14     6     7   ar
    15     7    17    1
    16    17    18    2
    17    17    19   am
    18    19    21    1
    19    21    22   ar
    20    22    23    1
    21    22    24   ar
    22    24    25   ar
    23    25    26   ar
    24    26    29    1
    25    29    30   ar
    26    29    31   ar
    27    26    27   ar
    28    27    28    1
    29     7     2   ar
    30    27    21   ar
    31    13     8   ar
    32    15    16    1
    33    19    20    1
@<TRIPOS>MOLECULE
*****
 31 33 0 0 0
SMALL
GASTEIGER

@<TRIPOS>ATOM
      1 C          61.1075   87.9163    9.5509 C.3     1  UNL1        0.0328
      2 C          62.0035   88.8681   10.2865 C.ar    1  UNL1        0.0003
      3 C          62.2132   90.2578    9.7624 C.ar    1  UNL1       -0.0011
      4 C          63.1092   91.2096   10.4980 C.ar    1  UNL1        0.0188
      5 C          63.7957   90.7717   11.7577 C.ar    1  UNL1        0.0814
      6 N          63.5861   89.3820   12.2819 N.ar    1  UNL1       -0.2411
      7 C          62.6900   88.4302   11.5462 C.ar    1  UNL1        0.1307
      8 C          64.6917   91.7235   12.4934 C.ar    1  UNL1        0.0174
      9 C          65.4324   92.7892   11.7414 C.ar    1  UNL1        0.0015
     10 C          66.3285   93.7411   12.4770 C.ar    1  UNL1       -0.0002
     11 C          66.4839   93.6271   13.9646 C.ar    1  UNL1       -0.0019
     12 C          65.7432   92.5613   14.7165 C.ar    1  UNL1        0.0070
     13 C          64.8471   91.6095   13.9809 C.ar    1  UNL1       -0.0004
     14 C          65.8985   92.4473   16.2041 C.3     1  UNL1        0.1636
     15 O          64.7602   92.8184   17.1077 O.3     1  UNL1       -0.3772
     16 H          64.5868   93.7700   17.0351 H       1  UNL1        0.2109
     17 C          62.4804   87.0404   12.0704 C.2     1  UNL1        0.2669
     18 O          61.1487   86.3699   11.9063 O.2     1  UNL1       -0.2682
     19 N          63.6025   86.3213   12.7587 N.am    1  UNL1       -0.2797
     20 H          64.4765   86.7614   12.8664 H       1  UNL1        0.1552
     21 C          63.3929   84.9315   13.2829 C.ar    1  UNL1        0.0426
     22 C          63.3033   84.6931   14.7611 C.ar    1  UNL1       -0.0087
     23 C          63.4233   85.8444   15.7151 C.3     1  UNL1        0.0323
     24 C          63.0937   83.3034   15.2853 C.ar    1  UNL1       -0.0030
     25 C          62.9737   82.1521   14.3313 C.ar    1  UNL1        0.0006
     26 C          63.0632   82.3906   12.8531 C.ar    1  UNL1        0.0112
     27 C          63.2728   83.7802   12.3289 C.ar    1  UNL1       -0.0076
     28 C          63.3624   84.0187   10.8507 C.3     1  UNL1        0.0324
     29 C          62.9432   81.2392   11.8990 C.2     1  UNL1        0.0726
     30 O          63.2665   81.4316   10.4470 O.co2   1  UNL1       -0.5446
     31 O          62.4999   79.8956   12.3971 O.co2   1  UNL1       -0.5446
@<TRIPOS>UNITY_ATOM_ATTR
30 1
charge -1
@<TRIPOS>BOND
     1     1     2    1
     2     2     3   ar
     3     3     4   ar
     4     4     5   ar
     5     5     8    1
     6     8     9   ar
     7     9    10   ar
     8    10    11   ar
     9    11    12   ar
    10    12    14    1
    11    14    15    1
    12    12    13   ar
    13     5     6   ar
    14     6     7   ar
    15     7    17    1
    16    17    18    2
    17    17    19   am
    18    19    21    1
    19    21    22   ar
    20    22    23    1
    21    22    24   ar
    22    24    25   ar
    23    25    26   ar
    24    26    29    1
    25    29    30   ar
    26    29    31   ar
    27    26    27   ar
    28    27    28    1
    29     7     2   ar
    30    27    21   ar
    31    13     8   ar
    32    15    16    1
    33    19    20    1
@<TRIPOS>MOLECULE
*****
 31 33 0 0 0
SMALL
GASTEIGER

@<TRIPOS>ATOM
      1 C          60.8669   87.8124    9.5955 C.3     1  UNL1        0.0328
      2 C          61.8029   88.7606   10.2846 C.ar    1  UNL1        0.0003
      3 C          61.9770   90.1555    9.7615 C.ar    1  UNL1       -0.0011
      4 C          62.9130   91.1037   10.4507 C.ar    1  UNL1        0.0188
      5 C          63.6749   90.6569   11.6630 C.ar    1  UNL1        0.0814
      6 N          63.5008   89.2619   12.1861 N.ar    1  UNL1       -0.2411
      7 C          62.5649   88.3138   11.4969 C.ar    1  UNL1        0.1307
      8 C          64.6109   91.6050   12.3521 C.ar    1  UNL1        0.0174
      9 C          65.0996   91.3021   13.7375 C.ar    1  UNL1        0.0015
     10 C          66.0356   92.2502   14.4267 C.ar    1  UNL1       -0.0002
     11 C          66.4829   93.5013   13.7305 C.ar    1  UNL1       -0.0019
     12 C          65.9941   93.8042   12.3451 C.ar    1  UNL1        0.0070
     13 C          65.0581   92.8561   11.6559 C.ar    1  UNL1       -0.0004
     14 C          66.4414   95.0553   11.6488 C.3     1  UNL1        0.1636
     15 O          65.5454   96.2580   11.6187 O.3     1  UNL1       -0.3772
     16 H          64.7521   96.0572   11.0979 H       1  UNL1        0.2109
     17 C          62.3908   86.9187   12.0201 C.2     1  UNL1        0.2669
     18 O          61.0623   86.2328   11.8995 O.2     1  UNL1       -0.2682
     19 N          63.5453   86.2097   12.6640 N.am    1  UNL1       -0.2797
     20 H          64.4172   86.6599   12.7432 H       1  UNL1        0.1552
     21 C          63.3712   84.8147   13.1872 C.ar    1  UNL1        0.0426
     22 C          63.2986   84.5718   14.6656 C.ar    1  UNL1       -0.0087
     23 C          63.4001   85.7239   15.6208 C.3     1  UNL1        0.0323
     24 C          63.1246   83.1768   15.1888 C.ar    1  UNL1       -0.0030
     25 C          63.0232   82.0248   14.2336 C.ar    1  UNL1        0.0006
     26 C          63.0958   82.2677   12.7552 C.ar    1  UNL1        0.0112
     27 C          63.2698   83.6626   12.2320 C.ar    1  UNL1       -0.0076
     28 C          63.3424   83.9055   10.7536 C.3     1  UNL1        0.0324
     29 C          62.9943   81.1155   11.8000 C.2     1  UNL1        0.0726
     30 O          62.5305   79.7752   12.2882 O.co2   1  UNL1       -0.5446
     31 O          63.3568   81.3038   10.3567 O.co2   1  UNL1       -0.5446
@<TRIPOS>UNITY_ATOM_ATTR
30 1
charge -1
@<TRIPOS>BOND
     1     1     2    1
     2     2     3   ar
     3     3     4   ar
     4     4     5   ar
     5     5     8    1
     6     8     9   ar
     7     9    10   ar
     8    10    11   ar
     9    11    12   ar
    10    12    14    1
    11    14    15    1
    12    12    13   ar
    13     5     6   ar
    14     6     7   ar
    15     7    17    1
    16    17    18    2
    17    17    19   am
    18    19    21    1
    19    21    22   ar
    20    22    23    1
    21    22    24   ar
    22    24    25   ar
    23    25    26   ar
    24    26    29    1
    25    29    30   ar
    26    29    31   ar
    27    26    27   ar
    28    27    28    1
    29     7     2   ar
    30    27    21   ar
    31    13     8   ar
    32    15    16    1
    33    19    20    1
@<TRIPOS>MOLECULE
*****
 31 33 0 0 0
SMALL
GASTEIGER

@<TRIPOS>ATOM
      1 C          64.6150   88.1033   14.9107 C.3     1  UNL1        0.0328
      2 C          63.8394   87.7848   13.6669 C.ar    1  UNL1        0.0003
      3 C          63.3969   86.3769   13.3988 C.ar    1  UNL1       -0.0011
      4 C          62.6213   86.0584   12.1550 C.ar    1  UNL1        0.0188
      5 C          62.2882   87.1478   11.1792 C.ar    1  UNL1        0.0814
      6 N          62.7307   88.5557   11.4473 N.ar    1  UNL1       -0.2411
      7 C          63.5063   88.8742   12.6911 C.ar    1  UNL1        0.1307
      8 C          61.5127   86.8293    9.9354 C.ar    1  UNL1        0.0174
      9 C          60.1405   87.4026    9.7398 C.ar    1  UNL1        0.0015
     10 C          59.3649   87.0841    8.4960 C.ar    1  UNL1       -0.0002
     11 C          59.9615   86.1923    7.4478 C.ar    1  UNL1       -0.0019
     12 C          61.3338   85.6190    7.6435 C.ar    1  UNL1        0.0070
     13 C          62.1093   85.9375    8.8873 C.ar    1  UNL1       -0.0004
     14 C          61.9305   84.7272    6.5953 C.3     1  UNL1        0.1636
     15 O          61.0397   84.0140    5.6217 O.3     1  UNL1       -0.3772
     16 H          60.4959   83.3657    6.0960 H       1  UNL1        0.2109
     17 C          63.9488   90.2823   12.9591 C.2     1  UNL1        0.2669
     18 O          63.0445   91.2252   13.6960 O.2     1  UNL1       -0.2682
     19 N          65.2956   90.7473   12.4902 N.am    1  UNL1       -0.2797
     20 H          65.8891   90.1284   12.0065 H       1  UNL1        0.1552
     21 C          65.7381   92.1553   12.7582 C.ar    1  UNL1        0.0426
     22 C          66.2338   92.5391   14.1209 C.ar    1  UNL1       -0.0087
     23 C          66.2871   91.5149   15.2156 C.3     1  UNL1        0.0323
     24 C          66.6763   93.9470   14.3889 C.ar    1  UNL1       -0.0030
     25 C          66.6230   94.9712   13.2943 C.ar    1  UNL1        0.0006
     26 C          66.1273   94.5874   11.9316 C.ar    1  UNL1        0.0112
     27 C          65.6848   93.1794   11.6636 C.ar    1  UNL1       -0.0076
     28 C          65.1890   92.7956   10.3009 C.3     1  UNL1        0.0324
     29 C          66.0740   95.6116   10.8369 C.2     1  UNL1        0.0726
     30 O          67.1527   95.6530    9.7955 O.co2   1  UNL1       -0.5446
     31 O          64.9420   96.5943   10.7838 O.co2   1  UNL1       -0.5446
@<TRIPOS>UNITY_ATOM_ATTR
30 1
charge -1
@<TRIPOS>BOND
     1     1     2    1
     2     2     3   ar
     3     3     4   ar
     4     4     5   ar
     5     5     8    1
     6     8     9   ar
     7     9    10   ar
     8    10    11   ar
     9    11    12   ar
    10    12    14    1
    11    14    15    1
    12    12    13   ar
    13     5     6   ar
    14     6     7   ar
    15     7    17    1
    16    17    18    2
    17    17    19   am
    18    19    21    1
    19    21    22   ar
    20    22    23    1
    21    22    24   ar
    22    24    25   ar
    23    25    26   ar
    24    26    29    1
    25    29    30   ar
    26    29    31   ar
    27    26    27   ar
    28    27    28    1
    29     7     2   ar
    30    27    21   ar
    31    13     8   ar
    32    15    16    1
    33    19    20    1
@<TRIPOS>MOLECULE
*****
 31 33 0 0 0
SMALL
GASTEIGER

@<TRIPOS>ATOM
      1 C          60.0244   90.5710   11.4989 C.3     1  UNL1        0.0328
      2 C          60.6713   89.2221   11.3901 C.ar    1  UNL1        0.0003
      3 C          59.9040   88.0660   10.8204 C.ar    1  UNL1       -0.0011
      4 C          60.5509   86.7171   10.7115 C.ar    1  UNL1        0.0188
      5 C          61.9652   86.5242   11.1724 C.ar    1  UNL1        0.0814
      6 N          62.7326   87.6802   11.7421 N.ar    1  UNL1       -0.2411
      7 C          62.0857   89.0292   11.8509 C.ar    1  UNL1        0.1307
      8 C          62.6121   85.1753   11.0635 C.ar    1  UNL1        0.0174
      9 C          63.2425   84.7479    9.7713 C.ar    1  UNL1        0.0015
     10 C          63.8894   83.3989    9.6625 C.ar    1  UNL1       -0.0002
     11 C          63.9060   82.4774   10.8458 C.ar    1  UNL1       -0.0019
     12 C          63.2756   82.9048   12.1381 C.ar    1  UNL1        0.0070
     13 C          62.6287   84.2537   12.2469 C.ar    1  UNL1       -0.0004
     14 C          63.2922   81.9832   13.3215 C.3     1  UNL1        0.1636
     15 O          63.5297   82.5329   14.6968 O.3     1  UNL1       -0.3772
     16 H          64.4317   82.8853   14.7529 H       1  UNL1        0.2109
     17 C          62.8531   90.1853   12.4207 C.2     1  UNL1        0.2669
     18 O          62.2006   91.1034   13.4113 O.2     1  UNL1       -0.2682
     19 N          64.2731   90.4232   11.9998 N.am    1  UNL1       -0.2797
     20 H          64.7013   89.8206   11.3496 H       1  UNL1        0.1552
     21 C          65.0405   91.5793   12.5695 C.ar    1  UNL1        0.0426
     22 C          65.2339   92.8248   11.7563 C.ar    1  UNL1       -0.0087
     23 C          64.6597   92.9142   10.3734 C.3     1  UNL1        0.0323
     24 C          66.0013   93.9809   12.3260 C.ar    1  UNL1       -0.0030
     25 C          66.5754   93.8914   13.7089 C.ar    1  UNL1        0.0006
     26 C          66.3820   92.6458   14.5221 C.ar    1  UNL1        0.0112
     27 C          65.6146   91.4898   13.9524 C.ar    1  UNL1       -0.0076
     28 C          65.4213   90.2443   14.7656 C.3     1  UNL1        0.0324
     29 C          66.9562   92.5564   15.9050 C.2     1  UNL1        0.0726
     30 O          66.0433   92.5051   17.0942 O.co2   1  UNL1       -0.5446
     31 O          68.4431   92.5183   16.0988 O.co2   1  UNL1       -0.5446
@<TRIPOS>UNITY_ATOM_ATTR
30 1
charge -1
@<TRIPOS>BOND
     1     1     2    1
     2     2     3   ar
     3     3     4   ar
     4     4     5   ar
     5     5     8    1
     6     8     9   ar
     7     9    10   ar
     8    10    11   ar
     9    11    12   ar
    10    12    14    1
    11    14    15    1
    12    12    13   ar
    13     5     6   ar
    14     6     7   ar
    15     7    17    1
    16    17    18    2
    17    17    19   am
    18    19    21    1
    19    21    22   ar
    20    22    23    1
    21    22    24   ar
    22    24    25   ar
    23    25    26   ar
    24    26    29    1
    25    29    30   ar
    26    29    31   ar
    27    26    27   ar
    28    27    28    1
    29     7     2   ar
    30    27    21   ar
    31    13     8   ar
    32    15    16    1
    33    19    20    1
@<TRIPOS>MOLECULE
*****
 31 33 0 0 0
SMALL
GASTEIGER

@<TRIPOS>ATOM
      1 C          63.2586   88.7549   17.1066 C.3     1  UNL1        0.0328
      2 C          63.1285   87.4467   16.3844 C.ar    1  UNL1        0.0003
      3 C          62.5117   86.2667   17.0751 C.ar    1  UNL1       -0.0011
      4 C          62.3817   84.9585   16.3529 C.ar    1  UNL1        0.0188
      5 C          62.8684   84.8302   14.9399 C.ar    1  UNL1        0.0814
      6 N          63.4853   86.0101   14.2492 N.ar    1  UNL1       -0.2411
      7 C          63.6153   87.3184   14.9714 C.ar    1  UNL1        0.1307
      8 C          62.7384   83.5219   14.2177 C.ar    1  UNL1        0.0174
      9 C          61.9593   82.3986   14.8351 C.ar    1  UNL1        0.0015
     10 C          61.8293   81.0904   14.1129 C.ar    1  UNL1       -0.0002
     11 C          62.4783   80.9055   12.7733 C.ar    1  UNL1       -0.0019
     12 C          63.2574   82.0288   12.1559 C.ar    1  UNL1        0.0070
     13 C          63.3874   83.3370   12.8781 C.ar    1  UNL1       -0.0004
     14 C          63.9065   81.8439   10.8163 C.3     1  UNL1        0.1636
     15 O          64.7292   82.9487   10.2226 O.3     1  UNL1       -0.3772
     16 H          64.1572   83.7062   10.0227 H       1  UNL1        0.2109
     17 C          64.2322   88.4983   14.2806 C.2     1  UNL1        0.2669
     18 O          65.6921   88.7930   14.4591 O.2     1  UNL1       -0.2682
     19 N          63.3892   89.3835   13.4113 N.am    1  UNL1       -0.2797
     20 H          62.4311   89.1901   13.2941 H       1  UNL1        0.1552
     21 C          64.0061   90.5635   12.7204 C.ar    1  UNL1        0.0426
     22 C          63.6791   90.8471   11.2843 C.ar    1  UNL1       -0.0087
     23 C          62.7352   89.9506   10.5389 C.3     1  UNL1        0.0323
     24 C          64.2959   92.0270   10.5934 C.ar    1  UNL1       -0.0030
     25 C          65.2398   92.9233   11.3388 C.ar    1  UNL1        0.0006
     26 C          65.5668   92.6398   12.7750 C.ar    1  UNL1        0.0112
     27 C          64.9500   91.4599   13.4658 C.ar    1  UNL1       -0.0076
     28 C          65.2770   91.1763   14.9020 C.3     1  UNL1        0.0324
     29 C          66.5107   93.5362   13.5203 C.2     1  UNL1        0.0726
     30 O          67.7295   92.9606   14.1785 O.co2   1  UNL1       -0.5446
     31 O          66.2358   95.0082   13.6075 O.co2   1  UNL1       -0.5446
@<TRIPOS>UNITY_ATOM_ATTR
30 1
charge -1
@<TRIPOS>BOND
     1     1     2    1
     2     2     3   ar
     3     3     4   ar
     4     4     5   ar
     5     5     8    1
     6     8     9   ar
     7     9    10   ar
     8    10    11   ar
     9    11    12   ar
    10    12    14    1
    11    14    15    1
    12    12    13   ar
    13     5     6   ar
    14     6     7   ar
    15     7    17    1
    16    17    18    2
    17    17    19   am
    18    19    21    1
    19    21    22   ar
    20    22    23    1
    21    22    24   ar
    22    24    25   ar
    23    25    26   ar
    24    26    29    1
    25    29    30   ar
    26    29    31   ar
    27    26    27   ar
    28    27    28    1
    29     7     2   ar
    30    27    21   ar
    31    13     8   ar
    32    15    16    1
    33    19    20    1
