@<TRIPOS>MOLECULE
*****
 48 54 0 0 0
SMALL
GASTEIGER

@<TRIPOS>ATOM
      1 C          62.7631   80.9426   12.3652 C.ar    1  UNL1        0.1736
      2 C          62.2762   82.2250   11.7583 C.ar    1  UNL1        0.0548
      3 C          62.3193   83.4955   12.5545 C.ar    1  UNL1        0.0569
      4 C          62.8495   83.4836   13.9576 C.ar    1  UNL1        0.0560
      5 C          63.3365   82.2012   14.5646 C.ar    1  UNL1        0.0444
      6 C          63.2933   80.9307   13.7684 C.ar    1  UNL1        0.1726
      7 C          62.8926   84.7541   14.7539 C.ar    1  UNL1        0.2075
      8 N          62.3144   84.9567   16.1230 N.ar    1  UNL1       -0.1074
      9 N          62.5860   86.3729   16.5361 N.ar    1  UNL1       -0.0406
     10 N          63.3322   87.0456   15.4222 N.ar    1  UNL1       -0.1285
     11 N          63.5217   86.0452   14.3207 N.ar    1  UNL1       -0.1253
     12 C          63.8057   88.4688   15.4116 C.ar    1  UNL1        0.1045
     13 C          64.7007   88.9533   14.3097 C.ar    1  UNL1        0.0206
     14 C          65.1743   90.3766   14.2991 C.ar    1  UNL1       -0.0026
     15 C          64.7528   91.3153   15.3904 C.ar    1  UNL1       -0.0207
     16 C          63.8578   90.8308   16.4924 C.ar    1  UNL1       -0.0026
     17 C          63.3842   89.4076   16.5030 C.ar    1  UNL1        0.0206
     18 C          65.2263   92.7386   15.3800 C.3     1  UNL1        0.0437
     19 C          66.5697   93.0778   14.8054 C.3     1  UNL1        0.0771
     20 N          66.7127   93.3372   13.3349 N.3     1  UNL1       -0.2683
     21 C          67.2448   92.2638   12.4323 C.3     1  UNL1        0.0771
     22 C          67.3878   92.5231   10.9618 C.3     1  UNL1        0.0450
     23 C          66.9988   93.8559   10.3940 C.ar    1  UNL1       -0.0043
     24 C          67.1418   94.1151    8.9235 C.ar    1  UNL1        0.0944
     25 N          66.7528   95.4479    8.3556 N.ar    1  UNL1       -0.2427
     26 C          66.2208   96.5213    9.2582 C.ar    1  UNL1        0.0986
     27 C          66.0777   96.2619   10.7288 C.ar    1  UNL1        0.0175
     28 C          66.4667   94.9293   11.2966 C.ar    1  UNL1       -0.0070
     29 C          66.3237   94.6699   12.7670 C.3     1  UNL1        0.0989
     30 N          61.8324   84.7778   11.9476 N.am    1  UNL1       -0.2777
     31 C          62.3061   85.1903   10.5854 C.2     1  UNL1        0.2843
     32 O          63.2668   84.3204    9.8302 O.2     1  UNL1       -0.2665
     33 H          61.2019   85.3488   12.4433 H       1  UNL1        0.1553
     34 C          61.8191   86.4727    9.9785 C.ar    1  UNL1        0.2017
     35 C          62.3562   87.7853   10.4673 C.ar    1  UNL1        0.0843
     36 C          61.8692   89.0676    9.8604 C.ar    1  UNL1        0.2018
     37 O          62.4063   90.3801   10.3492 O.2     1  UNL1       -0.2864
     38 C          60.8452   89.0375    8.7648 C.ar    1  UNL1        0.0735
     39 C          60.3583   90.3199    8.1579 C.ar    1  UNL1        0.0062
     40 C          59.3343   90.2898    7.0622 C.ar    1  UNL1        0.0003
     41 C          58.7972   88.9773    6.5734 C.ar    1  UNL1        0.0031
     42 C          59.2842   87.6950    7.1803 C.ar    1  UNL1        0.0376
     43 C          60.3082   87.7251    8.2760 C.ar    1  UNL1        0.1485
     44 O          60.7952   86.4426    8.8829 O.2     1  UNL1       -0.4487
     45 C          62.7990   79.7221   10.0719 C.3     1  UNL1        0.2526
     46 O          62.7199   79.6721   11.5690 O.3     1  UNL1       -0.4683
     47 O          63.7802   79.6483   14.3753 O.3     1  UNL1       -0.4684
     48 C          62.8386   78.4929   14.5430 C.3     1  UNL1        0.2526
@<TRIPOS>BOND
     1    45    46    1
     2    46     1    1
     3     1     2   ar
     4     2     3   ar
     5     3    30    1
     6    30    31   am
     7    31    32    2
     8    31    34    1
     9    34    35   ar
    10    35    36   ar
    11    36    37    2
    12    36    38   ar
    13    38    39   ar
    14    39    40   ar
    15    40    41   ar
    16    41    42   ar
    17    42    43   ar
    18    43    44   ar
    19     3     4   ar
    20     4     7    1
    21     7     8   ar
    22     8     9   ar
    23     9    10   ar
    24    10    12    1
    25    12    13   ar
    26    13    14   ar
    27    14    15   ar
    28    15    18    1
    29    18    19    1
    30    19    20    1
    31    20    21    1
    32    21    22    1
    33    22    23    1
    34    23    24   ar
    35    24    25   ar
    36    25    26   ar
    37    26    27   ar
    38    27    28   ar
    39    28    29    1
    40    15    16   ar
    41    16    17   ar
    42    10    11   ar
    43     4     5   ar
    44     5     6   ar
    45     6    47    1
    46    47    48    1
    47     6     1   ar
    48    44    34   ar
    49    11     7   ar
    50    43    38   ar
    51    17    12   ar
    52    29    20    1
    53    28    23   ar
    54    30    33    1
@<TRIPOS>MOLECULE
*****
 48 54 0 0 0
SMALL
GASTEIGER

@<TRIPOS>ATOM
      1 C          62.9912   80.7375   12.0627 C.ar    1  UNL1        0.1736
      2 C          63.0738   82.1039   11.4495 C.ar    1  UNL1        0.0548
      3 C          63.1017   83.3197   12.3276 C.ar    1  UNL1        0.0569
      4 C          63.0470   83.1690   13.8190 C.ar    1  UNL1        0.0560
      5 C          62.9644   81.8026   14.4323 C.ar    1  UNL1        0.0444
      6 C          62.9365   80.5868   13.5542 C.ar    1  UNL1        0.1726
      7 C          63.0749   84.3848   14.6971 C.ar    1  UNL1        0.2075
      8 N          62.5644   84.4673   16.1052 N.ar    1  UNL1       -0.1074
      9 N          62.7922   85.8651   16.5997 N.ar    1  UNL1       -0.0406
     10 N          63.4434   86.6464   15.4972 N.ar    1  UNL1       -0.1285
     11 N          63.6182   85.7316   14.3213 N.ar    1  UNL1       -0.1253
     12 C          63.8488   88.0892   15.5596 C.ar    1  UNL1        0.1045
     13 C          64.9052   88.6123   14.6320 C.ar    1  UNL1        0.0206
     14 C          65.3105   90.0551   14.6944 C.ar    1  UNL1       -0.0026
     15 C          64.6595   90.9749   15.6844 C.ar    1  UNL1       -0.0207
     16 C          63.6031   90.4518   16.6120 C.ar    1  UNL1       -0.0026
     17 C          63.1977   89.0090   16.5496 C.ar    1  UNL1        0.0206
     18 C          65.0648   92.4178   15.7469 C.3     1  UNL1        0.0437
     19 C          66.4320   92.8331   15.2905 C.3     1  UNL1        0.0771
     20 N          66.7116   93.0144   13.8280 N.3     1  UNL1       -0.2683
     21 C          67.4631   91.9592   13.0718 C.3     1  UNL1        0.0771
     22 C          67.7428   92.1405   11.6093 C.3     1  UNL1        0.0450
     23 C          67.2709   93.3768   10.9030 C.ar    1  UNL1       -0.0043
     24 C          67.5506   93.5579    9.4405 C.ar    1  UNL1        0.0944
     25 N          67.0786   94.7942    8.7342 N.ar    1  UNL1       -0.2427
     26 C          66.3271   95.8493    9.4904 C.ar    1  UNL1        0.0986
     27 C          66.0474   95.6682   10.9530 C.ar    1  UNL1        0.0175
     28 C          66.5193   94.4319   11.6592 C.ar    1  UNL1       -0.0070
     29 C          66.2397   94.2507   13.1217 C.3     1  UNL1        0.0989
     30 N          63.1843   84.6860   11.7143 N.am    1  UNL1       -0.2777
     31 C          62.0722   85.6706   11.9238 C.2     1  UNL1        0.2843
     32 O          60.8775   85.2888   12.7465 O.2     1  UNL1       -0.2665
     33 H          63.9684   84.9367   11.1744 H       1  UNL1        0.1553
     34 C          62.1548   87.0370   11.3105 C.ar    1  UNL1        0.2017
     35 C          61.3469   87.3609   10.0888 C.ar    1  UNL1        0.0843
     36 C          61.4295   88.7273    9.4756 C.ar    1  UNL1        0.2018
     37 O          60.6217   89.0511    8.2539 O.2     1  UNL1       -0.2864
     38 C          62.3199   89.7699   10.0840 C.ar    1  UNL1        0.0735
     39 C          62.4025   91.1362    9.4707 C.ar    1  UNL1        0.0062
     40 C          63.2930   92.1788   10.0792 C.ar    1  UNL1        0.0003
     41 C          64.1008   91.8550   11.3008 C.ar    1  UNL1        0.0031
     42 C          64.0182   90.4886   11.9141 C.ar    1  UNL1        0.0376
     43 C          63.1278   89.4461   11.3057 C.ar    1  UNL1        0.1485
     44 O          63.0452   88.0796   11.9190 O.2     1  UNL1       -0.4487
     45 C          62.7690   79.6698    9.7046 C.3     1  UNL1        0.2526
     46 O          62.9633   79.5217   11.1846 O.3     1  UNL1       -0.4683
     47 O          62.8539   79.2205   14.1674 O.3     1  UNL1       -0.4684
     48 C          61.5670   78.4516   14.1152 C.3     1  UNL1        0.2526
@<TRIPOS>BOND
     1    45    46    1
     2    46     1    1
     3     1     2   ar
     4     2     3   ar
     5     3    30    1
     6    30    31   am
     7    31    32    2
     8    31    34    1
     9    34    35   ar
    10    35    36   ar
    11    36    37    2
    12    36    38   ar
    13    38    39   ar
    14    39    40   ar
    15    40    41   ar
    16    41    42   ar
    17    42    43   ar
    18    43    44   ar
    19     3     4   ar
    20     4     7    1
    21     7     8   ar
    22     8     9   ar
    23     9    10   ar
    24    10    12    1
    25    12    13   ar
    26    13    14   ar
    27    14    15   ar
    28    15    18    1
    29    18    19    1
    30    19    20    1
    31    20    21    1
    32    21    22    1
    33    22    23    1
    34    23    24   ar
    35    24    25   ar
    36    25    26   ar
    37    26    27   ar
    38    27    28   ar
    39    28    29    1
    40    15    16   ar
    41    16    17   ar
    42    10    11   ar
    43     4     5   ar
    44     5     6   ar
    45     6    47    1
    46    47    48    1
    47     6     1   ar
    48    44    34   ar
    49    11     7   ar
    50    43    38   ar
    51    17    12   ar
    52    29    20    1
    53    28    23   ar
    54    30    33    1
@<TRIPOS>MOLECULE
*****
 48 54 0 0 0
SMALL
GASTEIGER

@<TRIPOS>ATOM
      1 C          63.2519   84.1318   15.3453 C.ar    1  UNL1        0.1736
      2 C          63.6752   85.4813   14.8459 C.ar    1  UNL1        0.0548
      3 C          63.3817   85.8834   13.4309 C.ar    1  UNL1        0.0569
      4 C          62.6650   84.9358   12.5152 C.ar    1  UNL1        0.0560
      5 C          62.2416   83.5862   13.0146 C.ar    1  UNL1        0.0444
      6 C          62.5351   83.1842   14.4296 C.ar    1  UNL1        0.1726
      7 C          62.3715   85.3379   11.1002 C.ar    1  UNL1        0.2075
      8 N          62.9636   84.7213    9.8676 N.ar    1  UNL1       -0.1074
      9 N          62.3925   85.4294    8.6750 N.ar    1  UNL1       -0.0406
     10 N          61.4474   86.4836    9.1705 N.ar    1  UNL1       -0.1285
     11 N          61.4344   86.4271   10.6694 N.ar    1  UNL1       -0.1253
     12 C          60.6545   87.4285    8.3170 C.ar    1  UNL1        0.1045
     13 C          60.7047   88.9035    8.5852 C.ar    1  UNL1        0.0206
     14 C          59.9118   89.8484    7.7317 C.ar    1  UNL1       -0.0026
     15 C          59.0687   89.3183    6.6101 C.ar    1  UNL1       -0.0207
     16 C          59.0185   87.8434    6.3419 C.ar    1  UNL1       -0.0026
     17 C          59.8114   86.8984    7.1954 C.ar    1  UNL1        0.0206
     18 C          58.2757   90.2632    5.7565 C.3     1  UNL1        0.0437
     19 C          58.7735   91.6584    5.5205 C.3     1  UNL1        0.0771
     20 N          59.8471   91.9097    4.5036 N.3     1  UNL1       -0.2683
     21 C          61.1830   91.2419    4.6428 C.3     1  UNL1        0.0771
     22 C          62.2566   91.4933    3.6259 C.3     1  UNL1        0.0450
     23 C          61.9944   92.4124    2.4698 C.ar    1  UNL1       -0.0043
     24 C          63.0681   92.6637    1.4530 C.ar    1  UNL1        0.0944
     25 N          62.8058   93.5828    0.2969 N.ar    1  UNL1       -0.2427
     26 C          61.4699   94.2506    0.1578 C.ar    1  UNL1        0.0986
     27 C          60.3962   93.9993    1.1747 C.ar    1  UNL1        0.0175
     28 C          60.6585   93.0802    2.3307 C.ar    1  UNL1       -0.0070
     29 C          59.5848   92.8289    3.3476 C.3     1  UNL1        0.0989
     30 N          63.8050   87.2329   12.9315 N.am    1  UNL1       -0.2777
     31 C          63.8482   88.4009   13.8717 C.2     1  UNL1        0.2843
     32 O          63.4681   88.2193   15.3113 O.2     1  UNL1       -0.2665
     33 H          64.0545   87.3521   11.9866 H       1  UNL1        0.1553
     34 C          64.2715   89.7505   13.3723 C.ar    1  UNL1        0.2017
     35 C          63.7877   90.2431   12.0406 C.ar    1  UNL1        0.0843
     36 C          64.2110   91.5927   11.5412 C.ar    1  UNL1        0.2018
     37 O          63.7271   92.0852   10.2096 O.2     1  UNL1       -0.2864
     38 C          65.1181   92.4497   12.3734 C.ar    1  UNL1        0.0735
     39 C          65.5414   93.7993   11.8740 C.ar    1  UNL1        0.0062
     40 C          66.4486   94.6563   12.7062 C.ar    1  UNL1        0.0003
     41 C          66.9324   94.1637   14.0379 C.ar    1  UNL1        0.0031
     42 C          66.5091   92.8142   14.5373 C.ar    1  UNL1        0.0376
     43 C          65.6020   91.9572   13.7050 C.ar    1  UNL1        0.1485
     44 O          65.1787   90.6075   14.2045 O.2     1  UNL1       -0.4487
     45 C          63.5806   84.7674   17.8428 C.3     1  UNL1        0.2526
     46 O          63.5454   83.7297   16.7603 O.3     1  UNL1       -0.4683
     47 O          62.1118   81.8346   14.9290 O.3     1  UNL1       -0.4684
     48 C          61.2815   80.9392   14.0580 C.3     1  UNL1        0.2526
@<TRIPOS>BOND
     1    45    46    1
     2    46     1    1
     3     1     2   ar
     4     2     3   ar
     5     3    30    1
     6    30    31   am
     7    31    32    2
     8    31    34    1
     9    34    35   ar
    10    35    36   ar
    11    36    37    2
    12    36    38   ar
    13    38    39   ar
    14    39    40   ar
    15    40    41   ar
    16    41    42   ar
    17    42    43   ar
    18    43    44   ar
    19     3     4   ar
    20     4     7    1
    21     7     8   ar
    22     8     9   ar
    23     9    10   ar
    24    10    12    1
    25    12    13   ar
    26    13    14   ar
    27    14    15   ar
    28    15    18    1
    29    18    19    1
    30    19    20    1
    31    20    21    1
    32    21    22    1
    33    22    23    1
    34    23    24   ar
    35    24    25   ar
    36    25    26   ar
    37    26    27   ar
    38    27    28   ar
    39    28    29    1
    40    15    16   ar
    41    16    17   ar
    42    10    11   ar
    43     4     5   ar
    44     5     6   ar
    45     6    47    1
    46    47    48    1
    47     6     1   ar
    48    44    34   ar
    49    11     7   ar
    50    43    38   ar
    51    17    12   ar
    52    29    20    1
    53    28    23   ar
    54    30    33    1
@<TRIPOS>MOLECULE
*****
 48 54 0 0 0
SMALL
GASTEIGER

@<TRIPOS>ATOM
      1 C          63.9939   82.7873   13.1096 C.ar    1  UNL1        0.1736
      2 C          64.4193   84.1915   13.4212 C.ar    1  UNL1        0.0548
      3 C          63.6262   85.3501   12.8933 C.ar    1  UNL1        0.0569
      4 C          62.4077   85.1044   12.0538 C.ar    1  UNL1        0.0560
      5 C          61.9822   83.7002   11.7421 C.ar    1  UNL1        0.0444
      6 C          62.7753   82.5416   12.2700 C.ar    1  UNL1        0.1726
      7 C          61.6146   86.2630   11.5259 C.ar    1  UNL1        0.2075
      8 N          60.9042   87.2944   12.3514 N.ar    1  UNL1       -0.1074
      9 N          60.2432   88.2625   11.4155 N.ar    1  UNL1       -0.0406
     10 N          60.5451   87.8294   10.0115 N.ar    1  UNL1       -0.1285
     11 N          61.3927   86.5937   10.0796 N.ar    1  UNL1       -0.1253
     12 C          60.0810   88.5121    8.7591 C.ar    1  UNL1        0.1045
     13 C          60.5221   89.9146    8.4619 C.ar    1  UNL1        0.0206
     14 C          60.0580   90.5974    7.2095 C.ar    1  UNL1       -0.0026
     15 C          59.1527   89.8776    6.2544 C.ar    1  UNL1       -0.0207
     16 C          58.7115   88.4751    6.5516 C.ar    1  UNL1       -0.0026
     17 C          59.1756   87.7923    7.8040 C.ar    1  UNL1        0.0206
     18 C          58.6884   90.5602    5.0020 C.3     1  UNL1        0.0437
     19 C          59.1064   91.9727    4.7187 C.3     1  UNL1        0.0771
     20 N          60.2833   92.2425    3.8287 N.3     1  UNL1       -0.2683
     21 C          61.5570   91.4726    4.0155 C.3     1  UNL1        0.0771
     22 C          62.7338   91.7423    3.1255 C.3     1  UNL1        0.0450
     23 C          62.6370   92.7820    2.0485 C.ar    1  UNL1       -0.0043
     24 C          63.8140   93.0516    1.1585 C.ar    1  UNL1        0.0944
     25 N          63.7171   94.0913    0.0816 N.ar    1  UNL1       -0.2427
     26 C          62.4434   94.8612   -0.1053 C.ar    1  UNL1        0.0986
     27 C          61.2665   94.5915    0.7848 C.ar    1  UNL1        0.0175
     28 C          61.3633   93.5519    1.8617 C.ar    1  UNL1       -0.0070
     29 C          60.1865   93.2821    2.7517 C.3     1  UNL1        0.0989
     30 N          64.0516   86.7543   13.2049 N.am    1  UNL1       -0.2777
     31 C          63.8606   87.3068   14.5864 C.2     1  UNL1        0.2843
     32 O          63.2442   86.4550   15.6562 O.2     1  UNL1       -0.2665
     33 H          64.4562   87.3134   12.5028 H       1  UNL1        0.1553
     34 C          64.2860   88.7110   14.8980 C.ar    1  UNL1        0.2017
     35 C          63.4192   89.5844   15.7559 C.ar    1  UNL1        0.0843
     36 C          63.8446   90.9886   16.0675 C.ar    1  UNL1        0.2018
     37 O          62.9778   91.8620   16.9253 O.2     1  UNL1       -0.2864
     38 C          65.1368   91.5195   15.5213 C.ar    1  UNL1        0.0735
     39 C          65.5623   92.9237   15.8329 C.ar    1  UNL1        0.0062
     40 C          66.8545   93.4546   15.2867 C.ar    1  UNL1        0.0003
     41 C          67.7213   92.5813   14.4288 C.ar    1  UNL1        0.0031
     42 C          67.2958   91.1771   14.1172 C.ar    1  UNL1        0.0376
     43 C          66.0036   90.6462   14.6634 C.ar    1  UNL1        0.1485
     44 O          65.5782   89.2419   14.3518 O.2     1  UNL1       -0.4487
     45 C          64.0880   80.4890   14.3174 C.3     1  UNL1        0.2526
     46 O          64.7870   81.6287   13.6375 O.3     1  UNL1       -0.4683
     47 O          62.3499   81.1374   11.9584 O.3     1  UNL1       -0.4684
     48 C          62.9022   80.4365   10.7527 C.3     1  UNL1        0.2526
@<TRIPOS>BOND
     1    45    46    1
     2    46     1    1
     3     1     2   ar
     4     2     3   ar
     5     3    30    1
     6    30    31   am
     7    31    32    2
     8    31    34    1
     9    34    35   ar
    10    35    36   ar
    11    36    37    2
    12    36    38   ar
    13    38    39   ar
    14    39    40   ar
    15    40    41   ar
    16    41    42   ar
    17    42    43   ar
    18    43    44   ar
    19     3     4   ar
    20     4     7    1
    21     7     8   ar
    22     8     9   ar
    23     9    10   ar
    24    10    12    1
    25    12    13   ar
    26    13    14   ar
    27    14    15   ar
    28    15    18    1
    29    18    19    1
    30    19    20    1
    31    20    21    1
    32    21    22    1
    33    22    23    1
    34    23    24   ar
    35    24    25   ar
    36    25    26   ar
    37    26    27   ar
    38    27    28   ar
    39    28    29    1
    40    15    16   ar
    41    16    17   ar
    42    10    11   ar
    43     4     5   ar
    44     5     6   ar
    45     6    47    1
    46    47    48    1
    47     6     1   ar
    48    44    34   ar
    49    11     7   ar
    50    43    38   ar
    51    17    12   ar
    52    29    20    1
    53    28    23   ar
    54    30    33    1
@<TRIPOS>MOLECULE
*****
 48 54 0 0 0
SMALL
GASTEIGER

@<TRIPOS>ATOM
      1 C          62.7178   80.3112   13.5092 C.ar    1  UNL1        0.1736
      2 C          62.6724   81.7160   14.0328 C.ar    1  UNL1        0.0548
      3 C          62.6923   82.8731   13.0785 C.ar    1  UNL1        0.0569
      4 C          62.7575   82.6253   11.6006 C.ar    1  UNL1        0.0560
      5 C          62.8029   81.2204   11.0769 C.ar    1  UNL1        0.0444
      6 C          62.7830   80.0633   12.0312 C.ar    1  UNL1        0.1726
      7 C          62.7774   83.7824   10.6462 C.ar    1  UNL1        0.2075
      8 N          63.9133   84.1605    9.7425 N.ar    1  UNL1       -0.1074
      9 N          63.5028   85.3763    8.9658 N.ar    1  UNL1       -0.0406
     10 N          62.1132   85.7497    9.3895 N.ar    1  UNL1       -0.1285
     11 N          61.6648   84.7646   10.4281 N.ar    1  UNL1       -0.1253
     12 C          61.3124   86.9052    8.8665 C.ar    1  UNL1        0.1045
     13 C          60.3208   86.6915    7.7615 C.ar    1  UNL1        0.0206
     14 C          59.5200   87.8470    7.2385 C.ar    1  UNL1       -0.0026
     15 C          59.7109   89.2163    7.8205 C.ar    1  UNL1       -0.0207
     16 C          60.7025   89.4300    8.9255 C.ar    1  UNL1       -0.0026
     17 C          61.5033   88.2744    9.4485 C.ar    1  UNL1        0.0206
     18 C          58.9102   90.3719    7.2976 C.3     1  UNL1        0.0437
     19 C          58.5093   90.4137    5.8527 C.3     1  UNL1        0.0771
     20 N          59.3528   91.1596    4.8616 N.3     1  UNL1       -0.2683
     21 C          58.7553   92.2772    4.0592 C.3     1  UNL1        0.0771
     22 C          59.5987   93.0231    3.0681 C.3     1  UNL1        0.0450
     23 C          61.0396   92.6513    2.8794 C.ar    1  UNL1       -0.0043
     24 C          61.8830   93.3973    1.8883 C.ar    1  UNL1        0.0944
     25 N          63.3239   93.0255    1.6996 N.ar    1  UNL1       -0.2427
     26 C          63.9214   91.9079    2.5021 C.ar    1  UNL1        0.0986
     27 C          63.0779   91.1619    3.4932 C.ar    1  UNL1        0.0175
     28 C          61.6371   91.5337    3.6819 C.ar    1  UNL1       -0.0070
     29 C          60.7937   90.7878    4.6730 C.3     1  UNL1        0.0989
     30 N          62.6469   84.2780   13.6021 N.am    1  UNL1       -0.2777
     31 C          63.8707   84.8887   14.2183 C.2     1  UNL1        0.2843
     32 O          65.1397   84.0943   14.3108 O.2     1  UNL1       -0.2665
     33 H          61.8140   84.7993   13.5413 H       1  UNL1        0.1553
     34 C          63.8253   86.2935   14.7419 C.ar    1  UNL1        0.2017
     35 C          63.4268   86.5511   16.1649 C.ar    1  UNL1        0.0843
     36 C          63.3814   87.9560   16.6884 C.ar    1  UNL1        0.2018
     37 O          62.9829   88.2136   18.1114 O.2     1  UNL1       -0.2864
     38 C          63.7346   89.1034   15.7891 C.ar    1  UNL1        0.0735
     39 C          63.6893   90.5083   16.3127 C.ar    1  UNL1        0.0062
     40 C          64.0425   91.6556   15.4133 C.ar    1  UNL1        0.0003
     41 C          64.4410   91.3981   13.9904 C.ar    1  UNL1        0.0031
     42 C          64.4864   89.9932   13.4668 C.ar    1  UNL1        0.0376
     43 C          64.1332   88.8458   14.3662 C.ar    1  UNL1        0.1485
     44 O          64.1785   87.4409   13.8425 O.2     1  UNL1       -0.4487
     45 C          61.5928   78.1423   14.3926 C.3     1  UNL1        0.2526
     46 O          62.6979   79.1541   14.4636 O.3     1  UNL1       -0.4683
     47 O          62.8283   78.6584   11.5077 O.3     1  UNL1       -0.4684
     48 C          62.8128   78.4084   10.0288 C.3     1  UNL1        0.2526
@<TRIPOS>BOND
     1    45    46    1
     2    46     1    1
     3     1     2   ar
     4     2     3   ar
     5     3    30    1
     6    30    31   am
     7    31    32    2
     8    31    34    1
     9    34    35   ar
    10    35    36   ar
    11    36    37    2
    12    36    38   ar
    13    38    39   ar
    14    39    40   ar
    15    40    41   ar
    16    41    42   ar
    17    42    43   ar
    18    43    44   ar
    19     3     4   ar
    20     4     7    1
    21     7     8   ar
    22     8     9   ar
    23     9    10   ar
    24    10    12    1
    25    12    13   ar
    26    13    14   ar
    27    14    15   ar
    28    15    18    1
    29    18    19    1
    30    19    20    1
    31    20    21    1
    32    21    22    1
    33    22    23    1
    34    23    24   ar
    35    24    25   ar
    36    25    26   ar
    37    26    27   ar
    38    27    28   ar
    39    28    29    1
    40    15    16   ar
    41    16    17   ar
    42    10    11   ar
    43     4     5   ar
    44     5     6   ar
    45     6    47    1
    46    47    48    1
    47     6     1   ar
    48    44    34   ar
    49    11     7   ar
    50    43    38   ar
    51    17    12   ar
    52    29    20    1
    53    28    23   ar
    54    30    33    1
@<TRIPOS>MOLECULE
*****
 48 54 0 0 0
SMALL
GASTEIGER

@<TRIPOS>ATOM
      1 C          63.0878   84.6708   15.6649 C.ar    1  UNL1        0.1736
      2 C          63.5979   85.9915   15.1695 C.ar    1  UNL1        0.0548
      3 C          63.3888   86.3870   13.7377 C.ar    1  UNL1        0.0569
      4 C          62.6696   85.4618   12.8015 C.ar    1  UNL1        0.0560
      5 C          62.1594   84.1410   13.2969 C.ar    1  UNL1        0.0444
      6 C          62.3686   83.7455   14.7286 C.ar    1  UNL1        0.1726
      7 C          62.4605   85.8573   11.3697 C.ar    1  UNL1        0.2075
      8 N          63.2404   85.3517   10.1924 N.ar    1  UNL1       -0.1074
      9 N          62.6967   86.0097    8.9590 N.ar    1  UNL1       -0.0406
     10 N          61.5806   86.9220    9.3740 N.ar    1  UNL1       -0.1285
     11 N          61.4346   86.8278   10.8639 N.ar    1  UNL1       -0.1253
     12 C          60.7555   87.7782    8.4597 C.ar    1  UNL1        0.1045
     13 C          60.7513   89.2687    8.6286 C.ar    1  UNL1        0.0206
     14 C          59.9262   90.1249    7.7143 C.ar    1  UNL1       -0.0026
     15 C          59.1051   89.4906    6.6310 C.ar    1  UNL1       -0.0207
     16 C          59.1092   88.0001    6.4620 C.ar    1  UNL1       -0.0026
     17 C          59.9344   87.1439    7.3764 C.ar    1  UNL1        0.0206
     18 C          58.2799   90.3467    5.7166 C.3     1  UNL1        0.0437
     19 C          58.7236   91.7425    5.3928 C.3     1  UNL1        0.0771
     20 N          59.8378   91.9673    4.4140 N.3     1  UNL1       -0.2683
     21 C          61.1484   91.2604    4.5944 C.3     1  UNL1        0.0771
     22 C          62.2626   91.4852    3.6156 C.3     1  UNL1        0.0450
     23 C          62.0662   92.4169    2.4565 C.ar    1  UNL1       -0.0043
     24 C          63.1806   92.6416    1.4779 C.ar    1  UNL1        0.0944
     25 N          62.9842   93.5732    0.3188 N.ar    1  UNL1       -0.2427
     26 C          61.6736   94.2801    0.1385 C.ar    1  UNL1        0.0986
     27 C          60.5592   94.0554    1.1172 C.ar    1  UNL1        0.0175
     28 C          60.7556   93.1237    2.2762 C.ar    1  UNL1       -0.0070
     29 C          59.6414   92.8990    3.2550 C.3     1  UNL1        0.0989
     30 N          63.8989   87.7077   13.2423 N.am    1  UNL1       -0.2777
     31 C          64.0961   88.8435   14.2021 C.2     1  UNL1        0.2843
     32 O          63.7832   88.6584   15.6574 O.2     1  UNL1       -0.2665
     33 H          64.1043   87.8291   12.2871 H       1  UNL1        0.1553
     34 C          64.6062   90.1641   13.7067 C.ar    1  UNL1        0.2017
     35 C          65.3825   91.0608   14.6252 C.ar    1  UNL1        0.0843
     36 C          65.8926   92.3814   14.1297 C.ar    1  UNL1        0.2018
     37 O          66.6688   93.2780   15.0482 O.2     1  UNL1       -0.2864
     38 C          65.6264   92.8056   12.7158 C.ar    1  UNL1        0.0735
     39 C          66.1365   94.1263   12.2203 C.ar    1  UNL1        0.0062
     40 C          65.8704   94.5505   10.8064 C.ar    1  UNL1        0.0003
     41 C          65.0942   93.6539    9.8879 C.ar    1  UNL1        0.0031
     42 C          64.5841   92.3333   10.3833 C.ar    1  UNL1        0.0376
     43 C          64.8502   91.9091   11.7973 C.ar    1  UNL1        0.1485
     44 O          64.3401   90.5883   12.2927 O.2     1  UNL1       -0.4487
     45 C          63.2003   85.3067   18.1814 C.3     1  UNL1        0.2526
     46 O          63.2970   84.2753   17.0967 O.3     1  UNL1       -0.4683
     47 O          61.8585   82.4248   15.2241 O.3     1  UNL1       -0.4684
     48 C          61.6442   81.2947   14.2614 C.3     1  UNL1        0.2526
@<TRIPOS>BOND
     1    45    46    1
     2    46     1    1
     3     1     2   ar
     4     2     3   ar
     5     3    30    1
     6    30    31   am
     7    31    32    2
     8    31    34    1
     9    34    35   ar
    10    35    36   ar
    11    36    37    2
    12    36    38   ar
    13    38    39   ar
    14    39    40   ar
    15    40    41   ar
    16    41    42   ar
    17    42    43   ar
    18    43    44   ar
    19     3     4   ar
    20     4     7    1
    21     7     8   ar
    22     8     9   ar
    23     9    10   ar
    24    10    12    1
    25    12    13   ar
    26    13    14   ar
    27    14    15   ar
    28    15    18    1
    29    18    19    1
    30    19    20    1
    31    20    21    1
    32    21    22    1
    33    22    23    1
    34    23    24   ar
    35    24    25   ar
    36    25    26   ar
    37    26    27   ar
    38    27    28   ar
    39    28    29    1
    40    15    16   ar
    41    16    17   ar
    42    10    11   ar
    43     4     5   ar
    44     5     6   ar
    45     6    47    1
    46    47    48    1
    47     6     1   ar
    48    44    34   ar
    49    11     7   ar
    50    43    38   ar
    51    17    12   ar
    52    29    20    1
    53    28    23   ar
    54    30    33    1
@<TRIPOS>MOLECULE
*****
 48 54 0 0 0
SMALL
GASTEIGER

@<TRIPOS>ATOM
      1 C          64.9802   90.2504   14.2734 C.ar    1  UNL1        0.1736
      2 C          64.5787   88.8234   14.0447 C.ar    1  UNL1        0.0548
      3 C          63.6522   88.4763   12.9173 C.ar    1  UNL1        0.0569
      4 C          63.1272   89.5563   12.0184 C.ar    1  UNL1        0.0560
      5 C          63.5287   90.9835   12.2471 C.ar    1  UNL1        0.0444
      6 C          64.4552   91.3305   13.3745 C.ar    1  UNL1        0.1726
      7 C          62.2008   89.2093   10.8910 C.ar    1  UNL1        0.2075
      8 N          61.4643   87.9135   10.7219 N.ar    1  UNL1       -0.1074
      9 N          60.6565   88.0005    9.4611 N.ar    1  UNL1       -0.0406
     10 N          60.8936   89.3500    8.8508 N.ar    1  UNL1       -0.1285
     11 N          61.8480   90.0972    9.7345 N.ar    1  UNL1       -0.1253
     12 C          60.2835   89.8625    7.5800 C.ar    1  UNL1        0.1045
     13 C          61.1347   90.5824    6.5763 C.ar    1  UNL1        0.0206
     14 C          60.5245   91.0950    5.3055 C.ar    1  UNL1       -0.0026
     15 C          59.0632   90.8876    5.0383 C.ar    1  UNL1       -0.0207
     16 C          58.2120   90.1677    6.0419 C.ar    1  UNL1       -0.0026
     17 C          58.8221   89.6552    7.3128 C.ar    1  UNL1        0.0206
     18 C          58.4529   91.4001    3.7675 C.3     1  UNL1        0.0437
     19 C          58.8106   92.7661    3.2614 C.3     1  UNL1        0.0771
     20 N          59.7217   92.9130    2.0789 N.3     1  UNL1       -0.2683
     21 C          59.1594   92.8702    0.6890 C.3     1  UNL1        0.0771
     22 C          60.0705   93.0172   -0.4935 C.3     1  UNL1        0.0450
     23 C          61.5439   93.2069   -0.2861 C.ar    1  UNL1       -0.0043
     24 C          62.4549   93.3538   -1.4687 C.ar    1  UNL1        0.0944
     25 N          63.9283   93.5435   -1.2613 N.ar    1  UNL1       -0.2427
     26 C          64.4907   93.5863    0.1287 C.ar    1  UNL1        0.0986
     27 C          63.5796   93.4394    1.3113 C.ar    1  UNL1        0.0175
     28 C          62.1062   93.2497    1.1038 C.ar    1  UNL1       -0.0070
     29 C          61.1952   93.1027    2.2863 C.3     1  UNL1        0.0989
     30 N          63.2507   87.0493   12.6886 N.am    1  UNL1       -0.2777
     31 C          63.8600   85.9569   13.5166 C.2     1  UNL1        0.2843
     32 O          64.8707   86.2916   14.5732 O.2     1  UNL1       -0.2665
     33 H          62.5873   86.8296   11.9952 H       1  UNL1        0.1553
     34 C          63.4585   84.5298   13.2880 C.ar    1  UNL1        0.2017
     35 C          62.7648   83.7625   14.3744 C.ar    1  UNL1        0.0843
     36 C          62.3633   82.3355   14.1457 C.ar    1  UNL1        0.2018
     37 O          61.6697   81.5683   15.2321 O.2     1  UNL1       -0.2864
     38 C          62.6555   81.6757   12.8307 C.ar    1  UNL1        0.0735
     39 C          62.2540   80.2486   12.6021 C.ar    1  UNL1        0.0062
     40 C          62.5461   79.5888   11.2871 C.ar    1  UNL1        0.0003
     41 C          63.2397   80.3560   10.2007 C.ar    1  UNL1        0.0031
     42 C          63.6412   81.7830   10.4293 C.ar    1  UNL1        0.0376
     43 C          63.3491   82.4429   11.7443 C.ar    1  UNL1        0.1485
     44 O          63.7506   83.8700   11.9730 O.2     1  UNL1       -0.4487
     45 C          67.1859   91.3294   15.1222 C.3     1  UNL1        0.2526
     46 O          65.9067   90.5975   15.4009 O.3     1  UNL1       -0.4683
     47 O          64.8567   92.7575   13.6032 O.3     1  UNL1       -0.4684
     48 C          65.8564   93.4100   12.6951 C.3     1  UNL1        0.2526
@<TRIPOS>BOND
     1    45    46    1
     2    46     1    1
     3     1     2   ar
     4     2     3   ar
     5     3    30    1
     6    30    31   am
     7    31    32    2
     8    31    34    1
     9    34    35   ar
    10    35    36   ar
    11    36    37    2
    12    36    38   ar
    13    38    39   ar
    14    39    40   ar
    15    40    41   ar
    16    41    42   ar
    17    42    43   ar
    18    43    44   ar
    19     3     4   ar
    20     4     7    1
    21     7     8   ar
    22     8     9   ar
    23     9    10   ar
    24    10    12    1
    25    12    13   ar
    26    13    14   ar
    27    14    15   ar
    28    15    18    1
    29    18    19    1
    30    19    20    1
    31    20    21    1
    32    21    22    1
    33    22    23    1
    34    23    24   ar
    35    24    25   ar
    36    25    26   ar
    37    26    27   ar
    38    27    28   ar
    39    28    29    1
    40    15    16   ar
    41    16    17   ar
    42    10    11   ar
    43     4     5   ar
    44     5     6   ar
    45     6    47    1
    46    47    48    1
    47     6     1   ar
    48    44    34   ar
    49    11     7   ar
    50    43    38   ar
    51    17    12   ar
    52    29    20    1
    53    28    23   ar
    54    30    33    1
@<TRIPOS>MOLECULE
*****
 48 54 0 0 0
SMALL
GASTEIGER

@<TRIPOS>ATOM
      1 C          62.8374   80.1552   13.1157 C.ar    1  UNL1        0.1736
      2 C          62.7307   81.4315   13.8965 C.ar    1  UNL1        0.0548
      3 C          62.5696   82.7386   13.1786 C.ar    1  UNL1        0.0569
      4 C          62.5152   82.7695   11.6799 C.ar    1  UNL1        0.0560
      5 C          62.6219   81.4932   10.8991 C.ar    1  UNL1        0.0444
      6 C          62.7830   80.1860   11.6170 C.ar    1  UNL1        0.1726
      7 C          62.3541   84.0767   10.9620 C.ar    1  UNL1        0.2075
      8 N          61.7590   84.2661    9.5983 N.ar    1  UNL1       -0.1074
      9 N          61.7970   85.7304    9.2752 N.ar    1  UNL1       -0.0406
     10 N          62.4156   86.4460   10.4394 N.ar    1  UNL1       -0.1285
     11 N          62.7599   85.4240   11.4819 N.ar    1  UNL1       -0.1253
     12 C          62.6489   87.9241   10.5429 C.ar    1  UNL1        0.1045
     13 C          63.1786   88.5124   11.8170 C.ar    1  UNL1        0.0206
     14 C          63.4119   89.9905   11.9205 C.ar    1  UNL1       -0.0026
     15 C          63.1155   90.8804   10.7499 C.ar    1  UNL1       -0.0207
     16 C          62.5857   90.2921    9.4758 C.ar    1  UNL1       -0.0026
     17 C          62.3524   88.8140    9.3723 C.ar    1  UNL1        0.0206
     18 C          63.3487   92.3585   10.8533 C.3     1  UNL1        0.0437
     19 C          64.6906   92.9320   10.5061 C.3     1  UNL1        0.0771
     20 N          65.8570   92.7209   11.4253 N.3     1  UNL1       -0.2683
     21 C          67.1389   92.1532   10.8920 C.3     1  UNL1        0.0771
     22 C          68.3053   91.9420   11.8112 C.3     1  UNL1        0.0450
     23 C          68.1899   92.2987   13.2636 C.ar    1  UNL1       -0.0043
     24 C          69.3564   92.0875   14.1827 C.ar    1  UNL1        0.0944
     25 N          69.2410   92.4441   15.6351 N.ar    1  UNL1       -0.2427
     26 C          67.9591   93.0119   16.1683 C.ar    1  UNL1        0.0986
     27 C          66.7926   93.2231   15.2492 C.ar    1  UNL1        0.0175
     28 C          66.9080   92.8664   13.7969 C.ar    1  UNL1       -0.0070
     29 C          65.7416   93.0776   12.8777 C.3     1  UNL1        0.0989
     30 N          62.4629   84.0149   13.9594 N.am    1  UNL1       -0.2777
     31 C          63.7045   84.7074   14.4380 C.2     1  UNL1        0.2843
     32 O          65.0527   84.1235   14.1358 O.2     1  UNL1       -0.2665
     33 H          61.5780   84.3981   14.1577 H       1  UNL1        0.1553
     34 C          63.5978   85.9837   15.2188 C.ar    1  UNL1        0.2017
     35 C          63.0734   85.9617   16.6240 C.ar    1  UNL1        0.0843
     36 C          62.9667   87.2380   17.4048 C.ar    1  UNL1        0.2018
     37 O          62.4424   87.2159   18.8099 O.2     1  UNL1       -0.2864
     38 C          63.3844   88.5363   16.7804 C.ar    1  UNL1        0.0735
     39 C          63.2777   89.8126   17.5611 C.ar    1  UNL1        0.0062
     40 C          63.6953   91.1110   16.9367 C.ar    1  UNL1        0.0003
     41 C          64.2197   91.1330   15.5316 C.ar    1  UNL1        0.0031
     42 C          64.3264   89.8567   14.7508 C.ar    1  UNL1        0.0376
     43 C          63.9087   88.5584   15.3752 C.ar    1  UNL1        0.1485
     44 O          64.0155   87.2820   14.5944 O.2     1  UNL1       -0.4487
     45 C          61.8008   78.1629   14.4219 C.3     1  UNL1        0.2526
     46 O          62.9985   78.8480   13.8336 O.3     1  UNL1       -0.4683
     47 O          62.8897   78.9097   10.8362 O.3     1  UNL1       -0.4684
     48 C          62.8941   78.9460    9.3367 C.3     1  UNL1        0.2526
@<TRIPOS>BOND
     1    45    46    1
     2    46     1    1
     3     1     2   ar
     4     2     3   ar
     5     3    30    1
     6    30    31   am
     7    31    32    2
     8    31    34    1
     9    34    35   ar
    10    35    36   ar
    11    36    37    2
    12    36    38   ar
    13    38    39   ar
    14    39    40   ar
    15    40    41   ar
    16    41    42   ar
    17    42    43   ar
    18    43    44   ar
    19     3     4   ar
    20     4     7    1
    21     7     8   ar
    22     8     9   ar
    23     9    10   ar
    24    10    12    1
    25    12    13   ar
    26    13    14   ar
    27    14    15   ar
    28    15    18    1
    29    18    19    1
    30    19    20    1
    31    20    21    1
    32    21    22    1
    33    22    23    1
    34    23    24   ar
    35    24    25   ar
    36    25    26   ar
    37    26    27   ar
    38    27    28   ar
    39    28    29    1
    40    15    16   ar
    41    16    17   ar
    42    10    11   ar
    43     4     5   ar
    44     5     6   ar
    45     6    47    1
    46    47    48    1
    47     6     1   ar
    48    44    34   ar
    49    11     7   ar
    50    43    38   ar
    51    17    12   ar
    52    29    20    1
    53    28    23   ar
    54    30    33    1
