@<TRIPOS>MOLECULE
*****
 40 44 0 0 0
SMALL
GASTEIGER

@<TRIPOS>ATOM
      1 C          64.1458   85.8689   15.3595 C.ar    1  UNL1        0.1383
      2 C          63.5104   85.0460   16.4408 C.ar    1  UNL1        0.0369
      3 C          62.7482   85.7176   17.5445 C.ar    1  UNL1        0.0028
      4 C          62.6215   87.2121   17.5668 C.ar    1  UNL1       -0.0041
      5 C          63.2569   88.0350   16.4856 C.ar    1  UNL1       -0.0186
      6 C          64.0190   87.3633   15.3819 C.ar    1  UNL1        0.0326
      7 O          64.9080   85.1973   14.2559 O.3     1  UNL1       -0.4751
      8 C          64.5918   83.7798   13.8807 C.3     1  UNL1        0.2118
      9 C          63.3250   83.4642   13.1421 C.3     1  UNL1        0.0960
     10 C          64.6097   82.6465   10.2558 C.3     1  UNL1        0.0738
     11 C          63.6277   83.7533   10.5020 C.ar    1  UNL1        0.1387
     12 O          63.0637   84.6785    9.4648 O.2     1  UNL1       -0.4392
     13 C          62.1246   85.6262   10.1504 C.ar    1  UNL1        0.2289
     14 N          62.1082   85.2867   11.6113 N.ar    1  UNL1       -0.2129
     15 C          63.0371   84.1292   11.8287 C.ar    1  UNL1        0.0960
     16 C          61.3397   86.7212    9.4908 C.ar    1  UNL1        0.0535
     17 C          60.3350   86.3883    8.4280 C.ar    1  UNL1        0.0046
     18 C          59.5502   87.4833    7.7684 C.ar    1  UNL1        0.0002
     19 C          59.7701   88.9112    8.1717 C.ar    1  UNL1        0.0000
     20 C          60.7749   89.2442    9.2344 C.ar    1  UNL1        0.0002
     21 C          61.5597   88.1492    9.8940 C.ar    1  UNL1        0.0046
     22 C          63.1301   89.5294   16.5080 C.3     1  UNL1        0.0376
     23 C          63.7253   90.3492   15.4019 C.3     1  UNL1        0.1052
     24 C          63.6102   90.3557   13.9063 C.2     1  UNL1        0.2315
     25 O          62.8521   89.5449   12.8974 O.2     1  UNL1       -0.2745
     26 N          64.5672   91.5088   13.8375 N.am    1  UNL1       -0.2546
     27 C          64.6823   91.5023   15.3331 C.3     1  UNL1        0.1249
     28 C          65.1624   92.3286   12.7314 C.ar    1  UNL1        0.0541
     29 C          66.0015   93.5289   13.0556 C.ar    1  UNL1        0.0146
     30 C          66.5968   94.3488   11.9495 C.ar    1  UNL1       -0.0030
     31 C          66.3529   93.9683   10.5192 C.ar    1  UNL1       -0.0227
     32 C          65.5138   92.7680   10.1950 C.ar    1  UNL1       -0.0030
     33 C          64.9186   91.9482   11.3012 C.ar    1  UNL1        0.0146
     34 C          66.9481   94.7882    9.4131 C.3     1  UNL1        0.0189
     35 C          67.8565   93.6488    9.0574 C.3     1  UNL1        0.0044
     36 C          66.0397   95.9276    9.7688 C.3     1  UNL1        0.0044
     37 C          67.5433   95.6081    8.3070 C.3     1  UNL1        0.0044
     38 C          65.4404   92.3130   16.3420 C.2     1  UNL1        0.0692
     39 O          64.7454   92.8230   17.5696 O.co2   1  UNL1       -0.5475
     40 O          66.8936   92.6139   16.1234 O.co2   1  UNL1       -0.5475
@<TRIPOS>UNITY_ATOM_ATTR
39 1
charge -1
@<TRIPOS>BOND
     1    10    11    1
     2    11    12   ar
     3    12    13   ar
     4    13    16    1
     5    16    17   ar
     6    17    18   ar
     7    18    19   ar
     8    19    20   ar
     9    20    21   ar
    10    13    14   ar
    11    14    15   ar
    12    15     9    1
    13     9     8    1
    14     8     7    1
    15     7     1    1
    16     1     2   ar
    17     2     3   ar
    18     3     4   ar
    19     4     5   ar
    20     5    22    1
    21    23    22    1
    22    23    24    1
    23    24    25    2
    24    24    26   am
    25    26    28    1
    26    28    29   ar
    27    29    30   ar
    28    30    31   ar
    29    31    34    1
    30    34    35    1
    31    34    36    1
    32    34    37    1
    33    31    32   ar
    34    32    33   ar
    35    26    27    1
    36    27    38    1
    37    38    39   ar
    38    38    40   ar
    39     5     6   ar
    40    15    11   ar
    41     6     1   ar
    42    21    16   ar
    43    27    23    1
    44    33    28   ar
@<TRIPOS>MOLECULE
*****
 40 44 0 0 0
SMALL
GASTEIGER

@<TRIPOS>ATOM
      1 C          61.8517   86.2500    8.5489 C.ar    1  UNL1        0.1383
      2 C          60.6819   85.7625    7.7465 C.ar    1  UNL1        0.0369
      3 C          59.4426   86.6011    7.6417 C.ar    1  UNL1        0.0028
      4 C          59.3732   87.9272    8.3393 C.ar    1  UNL1       -0.0041
      5 C          60.5431   88.4147    9.1417 C.ar    1  UNL1       -0.0186
      6 C          61.7823   87.5760    9.2464 C.ar    1  UNL1        0.0326
      7 O          63.0909   85.4113    8.6537 O.3     1  UNL1       -0.4751
      8 C          62.9833   83.9520    8.9837 C.3     1  UNL1        0.2118
      9 C          63.9081   83.3415    9.9946 C.3     1  UNL1        0.0960
     10 C          62.8741   80.8939   11.8894 C.3     1  UNL1        0.0738
     11 C          63.1116   82.3086   12.3279 C.ar    1  UNL1        0.1387
     12 O          62.9156   82.8467   13.7143 O.2     1  UNL1       -0.4392
     13 C          63.2697   84.3042   13.7002 C.ar    1  UNL1        0.2289
     14 N          63.6845   84.6670   12.3051 N.ar    1  UNL1       -0.2129
     15 C          63.5869   83.4337   11.4570 C.ar    1  UNL1        0.0960
     16 C          63.2179   85.2355   14.8750 C.ar    1  UNL1        0.0535
     17 C          62.4115   84.8710   16.0861 C.ar    1  UNL1        0.0046
     18 C          62.3598   85.8023   17.2608 C.ar    1  UNL1        0.0002
     19 C          63.1146   87.0981   17.2244 C.ar    1  UNL1        0.0000
     20 C          63.9210   87.4626   16.0134 C.ar    1  UNL1        0.0002
     21 C          63.9727   86.5313   14.8387 C.ar    1  UNL1        0.0046
     22 C          60.4737   89.7407    9.8392 C.3     1  UNL1        0.0376
     23 C          61.6219   90.2037   10.6860 C.3     1  UNL1        0.1052
     24 C          62.9341   90.8788   10.4165 C.2     1  UNL1        0.2315
     25 O          63.6414   91.3704    9.1886 O.2     1  UNL1       -0.2745
     26 N          63.2459   90.8586   11.8837 N.am    1  UNL1       -0.2546
     27 C          61.9338   90.1835   12.1532 C.3     1  UNL1        0.1249
     28 C          64.3942   91.3216   12.7305 C.ar    1  UNL1        0.0541
     29 C          64.7798   90.5503   13.9578 C.ar    1  UNL1        0.0146
     30 C          65.9280   91.0133   14.8046 C.ar    1  UNL1       -0.0030
     31 C          66.6907   92.2476   14.4240 C.ar    1  UNL1       -0.0227
     32 C          66.3052   93.0189   13.1967 C.ar    1  UNL1       -0.0030
     33 C          65.1568   92.5558   12.3499 C.ar    1  UNL1        0.0146
     34 C          67.8390   92.7106   15.2708 C.3     1  UNL1        0.0189
     35 C          68.7736   92.5051   14.1158 C.3     1  UNL1        0.0044
     36 C          66.9043   92.9162   16.4258 C.3     1  UNL1        0.0044
     37 C          68.9873   93.1736   16.1176 C.3     1  UNL1        0.0044
     38 C          61.2265   89.6919   13.3811 C.2     1  UNL1        0.0692
     39 O          61.9419   89.6666   14.6993 O.co2   1  UNL1       -0.5475
     40 O          59.8036   89.2255   13.2910 O.co2   1  UNL1       -0.5475
@<TRIPOS>UNITY_ATOM_ATTR
39 1
charge -1
@<TRIPOS>BOND
     1    10    11    1
     2    11    12   ar
     3    12    13   ar
     4    13    16    1
     5    16    17   ar
     6    17    18   ar
     7    18    19   ar
     8    19    20   ar
     9    20    21   ar
    10    13    14   ar
    11    14    15   ar
    12    15     9    1
    13     9     8    1
    14     8     7    1
    15     7     1    1
    16     1     2   ar
    17     2     3   ar
    18     3     4   ar
    19     4     5   ar
    20     5    22    1
    21    23    22    1
    22    23    24    1
    23    24    25    2
    24    24    26   am
    25    26    28    1
    26    28    29   ar
    27    29    30   ar
    28    30    31   ar
    29    31    34    1
    30    34    35    1
    31    34    36    1
    32    34    37    1
    33    31    32   ar
    34    32    33   ar
    35    26    27    1
    36    27    38    1
    37    38    39   ar
    38    38    40   ar
    39     5     6   ar
    40    15    11   ar
    41     6     1   ar
    42    21    16   ar
    43    27    23    1
    44    33    28   ar
