@<TRIPOS>MOLECULE
*****
 27 30 0 0 0
SMALL
GASTEIGER

@<TRIPOS>ATOM
      1 C          61.4003   88.1241   10.8307 C.2     1  UNL1       -0.0246
      2 C          62.1664   86.8810   11.1740 C.2     1  UNL1       -0.0421
      3 C          61.9302   85.8758   10.0859 C.3     1  UNL1        0.0480
      4 C          61.0182   86.4977    9.0702 C.ar    1  UNL1       -0.0184
      5 C          60.4437   85.9782    7.7857 C.ar    1  UNL1       -0.0040
      6 C          59.5417   86.8482    6.9615 C.ar    1  UNL1       -0.0003
      7 C          59.2142   88.2377    7.4218 C.ar    1  UNL1       -0.0000
      8 C          59.7887   88.7573    8.7063 C.ar    1  UNL1       -0.0006
      9 C          60.6907   87.8872    9.5305 C.ar    1  UNL1       -0.0079
     10 C          60.0920   89.7637   12.3639 C.3     1  UNL1        0.0111
     11 C          61.3522   89.3832   11.6447 C.3     1  UNL1        0.0634
     12 C          62.5643   90.2617   11.7395 C.ar    1  UNL1        0.0818
     13 C          63.0455   91.0089   10.5312 C.ar    1  UNL1        0.1139
     14 N          64.2575   91.8875   10.6262 N.ar    1  UNL1       -0.2394
     15 C          64.9884   92.0188   11.9294 C.ar    1  UNL1        0.1195
     16 C          64.5073   91.2716   13.1378 C.ar    1  UNL1        0.1191
     17 N          63.2952   90.3931   13.0429 N.ar    1  UNL1       -0.2446
     18 C          63.0189   86.6787   12.3915 C.3     1  UNL1        0.0394
     19 C          63.3110   85.2910   12.8803 C.3     1  UNL1        0.0768
     20 N          64.0312   85.0899   14.1806 N.3     1  UNL1       -0.2657
     21 C          64.5660   86.2727   14.9324 C.3     1  UNL1        0.0900
     22 C          64.2168   83.7062   14.7291 C.3     1  UNL1        0.1255
     23 C          63.3584   82.5811   14.2319 C.ar    1  UNL1        0.1045
     24 N          61.9358   82.3164   14.6269 N.ar    1  UNL1       -0.2398
     25 C          61.4701   81.0947   13.8915 C.ar    1  UNL1        0.1061
     26 C          62.6050   80.6044   13.0420 C.ar    1  UNL1        0.0572
     27 S          63.7720   81.5230   13.2524 S.2     1  UNL1       -0.0688
@<TRIPOS>BOND
     1    11    10    1
     2    11     1    1
     3     1     2    2
     4     2    18    1
     5    18    19    1
     6    19    20    1
     7    20    21    1
     8    20    22    1
     9    22    23    1
    10    23    24   ar
    11    24    25   ar
    12    25    26   ar
    13    26    27   ar
    14     2     3    1
    15     3     4    1
    16     4     5   ar
    17     5     6   ar
    18     6     7   ar
    19     7     8   ar
    20     8     9   ar
    21    11    12    1
    22    12    13   ar
    23    13    14   ar
    24    14    15   ar
    25    15    16   ar
    26    16    17   ar
    27     9     1    1
    28    17    12   ar
    29    27    23   ar
    30     9     4   ar
@<TRIPOS>MOLECULE
*****
 27 30 0 0 0
SMALL
GASTEIGER

@<TRIPOS>ATOM
      1 C          62.9757   85.3356   12.0180 C.2     1  UNL1       -0.0246
      2 C          63.5253   86.0824   13.1971 C.2     1  UNL1       -0.0421
      3 C          63.8598   85.0825   14.2640 C.3     1  UNL1        0.0480
      4 C          63.5169   83.7178   13.7444 C.ar    1  UNL1       -0.0184
      5 C          63.6317   82.3530   14.3558 C.ar    1  UNL1       -0.0040
      6 C          63.2000   81.1445   13.5792 C.ar    1  UNL1       -0.0003
      7 C          62.6535   81.3010   12.1910 C.ar    1  UNL1       -0.0000
      8 C          62.5388   82.6658   11.5796 C.ar    1  UNL1       -0.0006
      9 C          62.9705   83.8743   12.3562 C.ar    1  UNL1       -0.0079
     10 C          62.7919   85.2480    9.4279 C.3     1  UNL1        0.0111
     11 C          62.5125   85.9435   10.7273 C.3     1  UNL1        0.0634
     12 C          61.7700   87.2467   10.7358 C.ar    1  UNL1        0.0818
     13 C          62.2732   88.4020    9.9221 C.ar    1  UNL1        0.1139
     14 N          61.5306   89.7053    9.9307 N.ar    1  UNL1       -0.2394
     15 C          60.2848   89.8533   10.7529 C.ar    1  UNL1        0.1195
     16 C          59.7816   88.6980   11.5667 C.ar    1  UNL1        0.1191
     17 N          60.5241   87.3948   11.5581 N.ar    1  UNL1       -0.2446
     18 C          63.7083   87.5681   13.2925 C.3     1  UNL1        0.0394
     19 C          64.2763   88.1752   14.5410 C.3     1  UNL1        0.0768
     20 N          63.6972   89.4465   15.0874 N.3     1  UNL1       -0.2657
     21 C          63.1460   89.4810   16.4820 C.3     1  UNL1        0.0900
     22 C          63.6694   90.6833   14.2391 C.3     1  UNL1        0.1255
     23 C          64.9542   91.3114   13.7865 C.ar    1  UNL1        0.1045
     24 N          66.2739   91.2276   14.4945 N.ar    1  UNL1       -0.2398
     25 C          67.2802   91.9980   13.6920 C.ar    1  UNL1        0.1061
     26 C          66.5823   92.5580   12.4881 C.ar    1  UNL1        0.0572
     27 S          65.1448   92.1336   12.5465 S.2     1  UNL1       -0.0688
@<TRIPOS>BOND
     1    11    10    1
     2    11     1    1
     3     1     2    2
     4     2    18    1
     5    18    19    1
     6    19    20    1
     7    20    21    1
     8    20    22    1
     9    22    23    1
    10    23    24   ar
    11    24    25   ar
    12    25    26   ar
    13    26    27   ar
    14     2     3    1
    15     3     4    1
    16     4     5   ar
    17     5     6   ar
    18     6     7   ar
    19     7     8   ar
    20     8     9   ar
    21    11    12    1
    22    12    13   ar
    23    13    14   ar
    24    14    15   ar
    25    15    16   ar
    26    16    17   ar
    27     9     1    1
    28    17    12   ar
    29    27    23   ar
    30     9     4   ar
@<TRIPOS>MOLECULE
*****
 27 30 0 0 0
SMALL
GASTEIGER

@<TRIPOS>ATOM
      1 C          62.1369   86.3184   10.4389 C.2     1  UNL1       -0.0246
      2 C          62.4069   87.5536   11.2458 C.2     1  UNL1       -0.0421
      3 C          61.5531   88.6596   10.7001 C.3     1  UNL1        0.0480
      4 C          60.7554   88.1078    9.5559 C.ar    1  UNL1       -0.0184
      5 C          59.7470   88.7361    8.6402 C.ar    1  UNL1       -0.0040
      6 C          59.0996   87.9173    7.5630 C.ar    1  UNL1       -0.0003
      7 C          59.4604   86.4703    7.4015 C.ar    1  UNL1       -0.0000
      8 C          60.4687   85.8421    8.3173 C.ar    1  UNL1       -0.0006
      9 C          61.1162   86.6609    9.3944 C.ar    1  UNL1       -0.0079
     10 C          63.5765   84.3528    9.5363 C.3     1  UNL1        0.0111
     11 C          62.7755   84.9762   10.6409 C.3     1  UNL1        0.0634
     12 C          62.6132   84.2574   11.9473 C.ar    1  UNL1        0.0818
     13 C          62.5936   82.7579   11.9809 C.ar    1  UNL1        0.1139
     14 N          62.4313   82.0390   13.2874 N.ar    1  UNL1       -0.2394
     15 C          62.2886   82.8196   14.5603 C.ar    1  UNL1        0.1195
     16 C          62.3083   84.3191   14.5267 C.ar    1  UNL1        0.1191
     17 N          62.4706   85.0380   13.2202 N.ar    1  UNL1       -0.2446
     18 C          63.3629   87.6636   12.3965 C.3     1  UNL1        0.0394
     19 C          63.6390   89.0011   13.0170 C.3     1  UNL1        0.0768
     20 N          63.9984   89.0937   14.4703 N.3     1  UNL1       -0.2657
     21 C          64.0722   87.8499   15.3055 C.3     1  UNL1        0.0900
     22 C          64.2841   90.4302   15.0885 C.3     1  UNL1        0.1255
     23 C          65.2270   91.3823   14.4143 C.ar    1  UNL1        0.1045
     24 N          64.8995   92.2731   13.2527 N.ar    1  UNL1       -0.2398
     25 C          66.1329   93.0521   12.9038 C.ar    1  UNL1        0.1061
     26 C          67.2227   92.6428   13.8497 C.ar    1  UNL1        0.0572
     27 S          66.6628   91.6108   14.7832 S.2     1  UNL1       -0.0688
@<TRIPOS>BOND
     1    11    10    1
     2    11     1    1
     3     1     2    2
     4     2    18    1
     5    18    19    1
     6    19    20    1
     7    20    21    1
     8    20    22    1
     9    22    23    1
    10    23    24   ar
    11    24    25   ar
    12    25    26   ar
    13    26    27   ar
    14     2     3    1
    15     3     4    1
    16     4     5   ar
    17     5     6   ar
    18     6     7   ar
    19     7     8   ar
    20     8     9   ar
    21    11    12    1
    22    12    13   ar
    23    13    14   ar
    24    14    15   ar
    25    15    16   ar
    26    16    17   ar
    27     9     1    1
    28    17    12   ar
    29    27    23   ar
    30     9     4   ar
@<TRIPOS>MOLECULE
*****
 27 30 0 0 0
SMALL
GASTEIGER

@<TRIPOS>ATOM
      1 C          63.5209   87.1745   13.0545 C.2     1  UNL1       -0.0246
      2 C          63.6469   88.6583   13.2350 C.2     1  UNL1       -0.0421
      3 C          62.9895   89.3252   12.0632 C.3     1  UNL1        0.0480
      4 C          62.4572   88.2536   11.1585 C.ar    1  UNL1       -0.0184
      5 C          61.7159   88.3165    9.8561 C.ar    1  UNL1       -0.0040
      6 C          61.3030   87.0501    9.1663 C.ar    1  UNL1       -0.0003
      7 C          61.6314   85.7209    9.7789 C.ar    1  UNL1       -0.0000
      8 C          62.3728   85.6581   11.0814 C.ar    1  UNL1       -0.0006
      9 C          62.7856   86.9244   11.7712 C.ar    1  UNL1       -0.0079
     10 C          64.9312   86.5141   15.1342 C.3     1  UNL1        0.0111
     11 C          64.0392   86.1251   13.9926 C.3     1  UNL1        0.0634
     12 C          63.6656   84.6867   13.7892 C.ar    1  UNL1        0.0818
     13 C          62.4526   84.1235   14.4686 C.ar    1  UNL1        0.1139
     14 N          62.0790   82.6851   14.2652 N.ar    1  UNL1       -0.2394
     15 C          62.9183   81.8098   13.3824 C.ar    1  UNL1        0.1195
     16 C          64.1313   82.3730   12.7030 C.ar    1  UNL1        0.1191
     17 N          64.5049   83.8114   12.9064 N.ar    1  UNL1       -0.2446
     18 C          64.3133   89.3531   14.3852 C.3     1  UNL1        0.0394
     19 C          64.1931   90.8408   14.5342 C.3     1  UNL1        0.0768
     20 N          65.4258   91.6807   14.6929 N.3     1  UNL1       -0.2657
     21 C          65.6892   92.3888   15.9888 C.3     1  UNL1        0.0900
     22 C          66.3951   91.8125   13.5558 C.3     1  UNL1        0.1255
     23 C          66.2028   92.8871   12.5271 C.ar    1  UNL1        0.1045
     24 N          66.4891   94.3476   12.7136 N.ar    1  UNL1       -0.2398
     25 C          66.1538   95.0531   11.4331 C.ar    1  UNL1        0.1061
     26 C          65.6601   94.0285   10.4550 C.ar    1  UNL1        0.0572
     27 S          65.6905   92.6899   11.1312 S.2     1  UNL1       -0.0688
@<TRIPOS>BOND
     1    11    10    1
     2    11     1    1
     3     1     2    2
     4     2    18    1
     5    18    19    1
     6    19    20    1
     7    20    21    1
     8    20    22    1
     9    22    23    1
    10    23    24   ar
    11    24    25   ar
    12    25    26   ar
    13    26    27   ar
    14     2     3    1
    15     3     4    1
    16     4     5   ar
    17     5     6   ar
    18     6     7   ar
    19     7     8   ar
    20     8     9   ar
    21    11    12    1
    22    12    13   ar
    23    13    14   ar
    24    14    15   ar
    25    15    16   ar
    26    16    17   ar
    27     9     1    1
    28    17    12   ar
    29    27    23   ar
    30     9     4   ar
@<TRIPOS>MOLECULE
*****
 27 30 0 0 0
SMALL
GASTEIGER

@<TRIPOS>ATOM
      1 C          63.4774   90.1802   12.6530 C.2     1  UNL1       -0.0246
      2 C          64.0843   89.8165   13.9756 C.2     1  UNL1       -0.0421
      3 C          65.3014   90.6697   14.1774 C.3     1  UNL1        0.0480
      4 C          65.4466   91.5608   12.9795 C.ar    1  UNL1       -0.0184
      5 C          66.4597   92.6085   12.6249 C.ar    1  UNL1       -0.0040
      6 C          66.3456   93.3537   11.3281 C.ar    1  UNL1       -0.0003
      7 C          65.2183   93.0512   10.3860 C.ar    1  UNL1       -0.0000
      8 C          64.2052   92.0034   10.7406 C.ar    1  UNL1       -0.0006
      9 C          64.3193   91.2582   12.0373 C.ar    1  UNL1       -0.0079
     10 C          60.9249   90.2739   12.1774 C.3     1  UNL1        0.0111
     11 C          62.2449   89.5726   12.0515 C.3     1  UNL1        0.0634
     12 C          62.3323   88.2637   11.3242 C.ar    1  UNL1        0.0818
     13 C          62.2224   88.2278    9.8287 C.ar    1  UNL1        0.1139
     14 N          62.3098   86.9188    9.1014 N.ar    1  UNL1       -0.2394
     15 C          62.5070   85.6457    9.8696 C.ar    1  UNL1        0.1195
     16 C          62.6169   85.6815   11.3652 C.ar    1  UNL1        0.1191
     17 N          62.5295   86.9904   12.0925 N.ar    1  UNL1       -0.2446
     18 C          63.5653   88.7813   14.9290 C.3     1  UNL1        0.0394
     19 C          64.1706   87.4090   14.9485 C.3     1  UNL1        0.0768
     20 N          63.7569   86.4217   15.9992 N.3     1  UNL1       -0.2657
     21 C          62.7974   86.8312   17.0770 C.3     1  UNL1        0.0900
     22 C          64.3028   85.0248   15.9722 C.3     1  UNL1        0.1255
     23 C          63.8486   84.0624   14.9150 C.ar    1  UNL1        0.1045
     24 N          64.6155   83.6780   13.6845 N.ar    1  UNL1       -0.2398
     25 C          63.7888   82.6935   12.9117 C.ar    1  UNL1        0.1061
     26 C          62.5109   82.4694   13.6646 C.ar    1  UNL1        0.0572
     27 S          62.5479   83.3155   14.9027 S.2     1  UNL1       -0.0688
@<TRIPOS>BOND
     1    11    10    1
     2    11     1    1
     3     1     2    2
     4     2    18    1
     5    18    19    1
     6    19    20    1
     7    20    21    1
     8    20    22    1
     9    22    23    1
    10    23    24   ar
    11    24    25   ar
    12    25    26   ar
    13    26    27   ar
    14     2     3    1
    15     3     4    1
    16     4     5   ar
    17     5     6   ar
    18     6     7   ar
    19     7     8   ar
    20     8     9   ar
    21    11    12    1
    22    12    13   ar
    23    13    14   ar
    24    14    15   ar
    25    15    16   ar
    26    16    17   ar
    27     9     1    1
    28    17    12   ar
    29    27    23   ar
    30     9     4   ar
@<TRIPOS>MOLECULE
*****
 27 30 0 0 0
SMALL
GASTEIGER

@<TRIPOS>ATOM
      1 C          63.0745   87.6612   12.4123 C.2     1  UNL1       -0.0246
      2 C          63.7699   88.6401   13.3113 C.2     1  UNL1       -0.0421
      3 C          64.4831   87.8638   14.3783 C.3     1  UNL1        0.0480
      4 C          64.2285   86.4051   14.1389 C.ar    1  UNL1       -0.0184
      5 C          64.6769   85.1746   14.8703 C.ar    1  UNL1       -0.0040
      6 C          64.2548   83.8190   14.3866 C.ar    1  UNL1       -0.0003
      7 C          63.3842   83.6938   13.1715 C.ar    1  UNL1       -0.0000
      8 C          62.9357   84.9242   12.4401 C.ar    1  UNL1       -0.0006
      9 C          63.3579   86.2798   12.9238 C.ar    1  UNL1       -0.0079
     10 C          62.5799   87.4183    9.8733 C.3     1  UNL1        0.0111
     11 C          62.2418   88.0035   11.2125 C.3     1  UNL1        0.0634
     12 C          61.0711   88.9308   11.3518 C.ar    1  UNL1        0.0818
     13 C          61.0833   90.2629   10.6625 C.ar    1  UNL1        0.1139
     14 N          59.9125   91.1902   10.8018 N.ar    1  UNL1       -0.2394
     15 C          58.7296   90.7854   11.6305 C.ar    1  UNL1        0.1195
     16 C          58.7174   89.4533   12.3200 C.ar    1  UNL1        0.1191
     17 N          59.8881   88.5260   12.1806 N.ar    1  UNL1       -0.2446
     18 C          63.7548   90.1332   13.1683 C.3     1  UNL1        0.0394
     19 C          64.8105   90.9616   13.8384 C.3     1  UNL1        0.0768
     20 N          65.7065   91.8415   13.0181 N.3     1  UNL1       -0.2657
     21 C          67.0719   92.2015   13.5241 C.3     1  UNL1        0.0900
     22 C          65.2371   92.3614   11.6917 C.3     1  UNL1        0.1255
     23 C          66.1154   93.2769   10.8915 C.ar    1  UNL1        0.1045
     24 N          67.1923   92.8540    9.9368 N.ar    1  UNL1       -0.2398
     25 C          67.8135   94.0919    9.3608 C.ar    1  UNL1        0.1061
     26 C          67.1206   95.2799    9.9596 C.ar    1  UNL1        0.0572
     27 S          66.0711   94.7762   10.9056 S.2     1  UNL1       -0.0688
@<TRIPOS>BOND
     1    11    10    1
     2    11     1    1
     3     1     2    2
     4     2    18    1
     5    18    19    1
     6    19    20    1
     7    20    21    1
     8    20    22    1
     9    22    23    1
    10    23    24   ar
    11    24    25   ar
    12    25    26   ar
    13    26    27   ar
    14     2     3    1
    15     3     4    1
    16     4     5   ar
    17     5     6   ar
    18     6     7   ar
    19     7     8   ar
    20     8     9   ar
    21    11    12    1
    22    12    13   ar
    23    13    14   ar
    24    14    15   ar
    25    15    16   ar
    26    16    17   ar
    27     9     1    1
    28    17    12   ar
    29    27    23   ar
    30     9     4   ar
@<TRIPOS>MOLECULE
*****
 27 30 0 0 0
SMALL
GASTEIGER

@<TRIPOS>ATOM
      1 C          64.2472   90.6233   12.6249 C.2     1  UNL1       -0.0246
      2 C          64.2742   89.4846   13.6009 C.2     1  UNL1       -0.0421
      3 C          65.1808   89.8661   14.7334 C.3     1  UNL1        0.0480
      4 C          65.7140   91.2407   14.4574 C.ar    1  UNL1       -0.0184
      5 C          66.6505   92.1267   15.2242 C.ar    1  UNL1       -0.0040
      6 C          67.0099   93.4806   14.6880 C.ar    1  UNL1       -0.0003
      7 C          66.4329   93.9486   13.3849 C.ar    1  UNL1       -0.0000
      8 C          65.4965   93.0626   12.6180 C.ar    1  UNL1       -0.0006
      9 C          65.1371   91.7087   13.1543 C.ar    1  UNL1       -0.0079
     10 C          63.8310   91.6607   10.2795 C.3     1  UNL1        0.0111
     11 C          63.4672   90.6688   11.3445 C.3     1  UNL1        0.0634
     12 C          62.3237   89.7225   11.1288 C.ar    1  UNL1        0.0818
     13 C          61.0564   89.8860   11.9146 C.ar    1  UNL1        0.1139
     14 N          59.9128   88.9396   11.6988 N.ar    1  UNL1       -0.2394
     15 C          60.0364   87.8298   10.6974 C.ar    1  UNL1        0.1195
     16 C          61.3036   87.6663    9.9115 C.ar    1  UNL1        0.1191
     17 N          62.4472   88.6126   10.1273 N.ar    1  UNL1       -0.2446
     18 C          63.5260   88.1913   13.4677 C.3     1  UNL1        0.0394
     19 C          64.0589   86.9466   14.1132 C.3     1  UNL1        0.0768
     20 N          63.6279   85.5994   13.6141 N.3     1  UNL1       -0.2657
     21 C          62.7894   85.4917   12.3749 C.3     1  UNL1        0.0900
     22 C          64.0354   84.3599   14.3540 C.3     1  UNL1        0.1255
     23 C          63.3473   83.0573   14.0713 C.ar    1  UNL1        0.1045
     24 N          62.0557   82.5929   14.6765 N.ar    1  UNL1       -0.2398
     25 C          61.7401   81.2391   14.1130 C.ar    1  UNL1        0.1061
     26 C          62.8366   80.8667   13.1596 C.ar    1  UNL1        0.0572
     27 S          63.8298   81.9905   13.1338 S.2     1  UNL1       -0.0688
@<TRIPOS>BOND
     1    11    10    1
     2    11     1    1
     3     1     2    2
     4     2    18    1
     5    18    19    1
     6    19    20    1
     7    20    21    1
     8    20    22    1
     9    22    23    1
    10    23    24   ar
    11    24    25   ar
    12    25    26   ar
    13    26    27   ar
    14     2     3    1
    15     3     4    1
    16     4     5   ar
    17     5     6   ar
    18     6     7   ar
    19     7     8   ar
    20     8     9   ar
    21    11    12    1
    22    12    13   ar
    23    13    14   ar
    24    14    15   ar
    25    15    16   ar
    26    16    17   ar
    27     9     1    1
    28    17    12   ar
    29    27    23   ar
    30     9     4   ar
@<TRIPOS>MOLECULE
*****
 27 30 0 0 0
SMALL
GASTEIGER

@<TRIPOS>ATOM
      1 C          63.2061   88.8417   12.2981 C.2     1  UNL1       -0.0246
      2 C          63.7619   89.7752   13.3323 C.2     1  UNL1       -0.0421
      3 C          64.2924   88.9482   14.4658 C.3     1  UNL1        0.0480
      4 C          64.0644   87.5037   14.1320 C.ar    1  UNL1       -0.0184
      5 C          64.3815   86.2398   14.8749 C.ar    1  UNL1       -0.0040
      6 C          64.0271   84.9101   14.2781 C.ar    1  UNL1       -0.0003
      7 C          63.3557   84.8443   12.9384 C.ar    1  UNL1       -0.0000
      8 C          63.0387   86.1082   12.1955 C.ar    1  UNL1       -0.0006
      9 C          63.3930   87.4379   12.7923 C.ar    1  UNL1       -0.0079
     10 C          62.7241   90.6461   10.4919 C.3     1  UNL1        0.0111
     11 C          62.5742   89.2419   10.9978 C.3     1  UNL1        0.0634
     12 C          61.7925   88.2380   10.2035 C.ar    1  UNL1        0.0818
     13 C          60.2936   88.2391   10.2609 C.ar    1  UNL1        0.1139
     14 N          59.5119   87.2351    9.4666 N.ar    1  UNL1       -0.2394
     15 C          60.2290   86.2301    8.6148 C.ar    1  UNL1        0.1195
     16 C          61.7279   86.2290    8.5573 C.ar    1  UNL1        0.1191
     17 N          62.5096   87.2329    9.3517 N.ar    1  UNL1       -0.2446
     18 C          63.7835   91.2727   13.2480 C.3     1  UNL1        0.0394
     19 C          64.9325   91.9699   12.5819 C.3     1  UNL1        0.0768
     20 N          66.2641   92.0447   13.2683 N.3     1  UNL1       -0.2657
     21 C          66.3320   92.2020   14.7585 C.3     1  UNL1        0.0900
     22 C          67.5279   91.9623   12.4645 C.3     1  UNL1        0.1255
     23 C          67.6367   92.6961   11.1608 C.ar    1  UNL1        0.1045
     24 N          67.1952   94.1064   10.9033 N.ar    1  UNL1       -0.2398
     25 C          67.4918   94.4304    9.4690 C.ar    1  UNL1        0.1061
     26 C          68.1167   93.2204    8.8401 C.ar    1  UNL1        0.0572
     27 S          68.2062   92.1486    9.8857 S.2     1  UNL1       -0.0688
@<TRIPOS>BOND
     1    11    10    1
     2    11     1    1
     3     1     2    2
     4     2    18    1
     5    18    19    1
     6    19    20    1
     7    20    21    1
     8    20    22    1
     9    22    23    1
    10    23    24   ar
    11    24    25   ar
    12    25    26   ar
    13    26    27   ar
    14     2     3    1
    15     3     4    1
    16     4     5   ar
    17     5     6   ar
    18     6     7   ar
    19     7     8   ar
    20     8     9   ar
    21    11    12    1
    22    12    13   ar
    23    13    14   ar
    24    14    15   ar
    25    15    16   ar
    26    16    17   ar
    27     9     1    1
    28    17    12   ar
    29    27    23   ar
    30     9     4   ar
@<TRIPOS>MOLECULE
*****
 27 30 0 0 0
SMALL
GASTEIGER

@<TRIPOS>ATOM
      1 C          63.3550   86.7868   12.8521 C.2     1  UNL1       -0.0246
      2 C          63.5753   88.2472   13.1142 C.2     1  UNL1       -0.0421
      3 C          62.9298   89.0202   12.0025 C.3     1  UNL1        0.0480
      4 C          62.3106   88.0375   11.0533 C.ar    1  UNL1       -0.0184
      5 C          61.5415   88.2213    9.7788 C.ar    1  UNL1       -0.0040
      6 C          61.0351   87.0247    9.0293 C.ar    1  UNL1       -0.0003
      7 C          61.2978   85.6444    9.5543 C.ar    1  UNL1       -0.0000
      8 C          62.0670   85.4607   10.8289 C.ar    1  UNL1       -0.0006
      9 C          62.5734   86.6572   11.5784 C.ar    1  UNL1       -0.0079
     10 C          64.5627   85.9409   14.9913 C.3     1  UNL1        0.0111
     11 C          63.8325   85.6547   13.7126 C.3     1  UNL1        0.0634
     12 C          63.5798   84.2366   13.2945 C.ar    1  UNL1        0.0818
     13 C          64.4912   83.5724   12.3055 C.ar    1  UNL1        0.1139
     14 N          64.2385   82.1542   11.8875 N.ar    1  UNL1       -0.2394
     15 C          63.0743   81.4001   12.4584 C.ar    1  UNL1        0.1195
     16 C          62.1627   82.0642   13.4474 C.ar    1  UNL1        0.1191
     17 N          62.4155   83.4824   13.8654 N.ar    1  UNL1       -0.2446
     18 C          64.3118   88.8319   14.2829 C.3     1  UNL1        0.0394
     19 C          63.8742   90.1432   14.8652 C.3     1  UNL1        0.0768
     20 N          64.6281   91.3980   14.5382 N.3     1  UNL1       -0.2657
     21 C          64.6977   91.8832   13.1205 C.3     1  UNL1        0.0900
     22 C          65.3125   92.1676   15.6287 C.3     1  UNL1        0.1255
     23 C          66.7643   92.5218   15.4992 C.ar    1  UNL1        0.1045
     24 N          67.4963   93.5510   16.3085 N.ar    1  UNL1       -0.2398
     25 C          68.9235   93.5743   15.8472 C.ar    1  UNL1        0.1061
     26 C          69.0735   92.5594   14.7529 C.ar    1  UNL1        0.0572
     27 S          67.7391   91.9090   14.5379 S.2     1  UNL1       -0.0688
@<TRIPOS>BOND
     1    11    10    1
     2    11     1    1
     3     1     2    2
     4     2    18    1
     5    18    19    1
     6    19    20    1
     7    20    21    1
     8    20    22    1
     9    22    23    1
    10    23    24   ar
    11    24    25   ar
    12    25    26   ar
    13    26    27   ar
    14     2     3    1
    15     3     4    1
    16     4     5   ar
    17     5     6   ar
    18     6     7   ar
    19     7     8   ar
    20     8     9   ar
    21    11    12    1
    22    12    13   ar
    23    13    14   ar
    24    14    15   ar
    25    15    16   ar
    26    16    17   ar
    27     9     1    1
    28    17    12   ar
    29    27    23   ar
    30     9     4   ar
