@<TRIPOS>MOLECULE
*****
 37 41 0 0 0
SMALL
GASTEIGER

@<TRIPOS>ATOM
      1 N          63.0264   89.7427   15.5940 N.ar    1  UNL1       -0.1994
      2 N          64.2976   90.5081   15.3746 N.ar    1  UNL1       -0.1460
      3 C          64.2973   91.0120   13.9618 C.ar    1  UNL1        0.1860
      4 C          65.2905   91.8255   13.1861 C.ar    1  UNL1        0.0422
      5 C          65.0124   92.1852   11.7567 C.ar    1  UNL1        0.0606
      6 C          63.7409   91.7313   11.1029 C.ar    1  UNL1        0.2756
      7 O          63.4627   92.0909    9.6735 O.2     1  UNL1       -0.2655
      8 N          62.7477   90.9177   11.8786 N.ar    1  UNL1       -0.2229
      9 N          63.0259   90.5581   13.3080 N.ar    1  UNL1       -0.1765
     10 C          62.2404   89.7736   14.3168 C.ar    1  UNL1        0.3669
     11 O          60.9036   89.1326   14.0884 O.2     1  UNL1       -0.2429
     12 C          66.5620   92.2794   13.8399 C.ar    1  UNL1        0.0032
     13 C          66.5277   93.3674   14.8719 C.ar    1  UNL1        0.0010
     14 C          67.7992   93.8214   15.5257 C.ar    1  UNL1        0.0114
     15 C          69.1049   93.1873   15.1475 C.ar    1  UNL1        0.0577
     16 CL         70.3763   93.6412   15.8012 Cl      1  UNL1       -0.0822
     17 C          69.1391   92.0992   14.1154 C.ar    1  UNL1        0.0114
     18 C          67.8677   91.6453   13.4616 C.ar    1  UNL1        0.0010
     19 C          66.0056   92.9987   10.9810 C.ar    1  UNL1        0.0078
     20 C          67.0610   92.3142   10.1641 C.ar    1  UNL1        0.0208
     21 C          68.0542   93.1277    9.3885 C.ar    1  UNL1        0.0989
     22 N          67.9920   94.6259    9.4298 N.ar    1  UNL1       -0.2423
     23 C          66.9366   95.3105   10.2467 C.ar    1  UNL1        0.0989
     24 C          65.9433   94.4969   11.0224 C.ar    1  UNL1        0.0208
     25 C          62.9943   87.6356   17.1136 C.3     1  UNL1        0.0286
     26 C          62.6135   89.0654   16.8671 C.3     1  UNL1        0.1324
     27 C          61.4762   90.4638   11.2248 C.3     1  UNL1        0.1572
     28 C          61.4775   89.2487   10.3453 C.ar    1  UNL1        0.0213
     29 C          62.4363   88.1275   10.6166 C.ar    1  UNL1        0.0007
     30 C          62.4375   86.9124    9.7371 C.ar    1  UNL1        0.0228
     31 C          61.4799   86.8185    8.5863 C.ar    1  UNL1        0.1526
     32 N          60.5211   87.9397    8.3151 N.ar    1  UNL1       -0.2401
     33 C          60.5199   89.1548    9.1946 C.ar    1  UNL1        0.0964
     34 C          61.4811   85.6034    7.7068 C.3     1  UNL1        0.4348
     35 F          61.4823   84.3883    6.8274 F       1  UNL1       -0.1644
     36 F          62.9688   85.4919    7.8627 F       1  UNL1       -0.1644
     37 F          59.9934   85.7148    7.5509 F       1  UNL1       -0.1644
@<TRIPOS>BOND
     1    25    26    1
     2    26     1    1
     3     1     2   ar
     4     2     3   ar
     5     3     4   ar
     6     4    12    1
     7    12    13   ar
     8    13    14   ar
     9    14    15   ar
    10    15    16    1
    11    15    17   ar
    12    17    18   ar
    13     4     5   ar
    14     5    19    1
    15    19    20   ar
    16    20    21   ar
    17    21    22   ar
    18    22    23   ar
    19    23    24   ar
    20     5     6   ar
    21     6     7    2
    22     6     8   ar
    23     8    27    1
    24    27    28    1
    25    28    29   ar
    26    29    30   ar
    27    30    31   ar
    28    31    34    1
    29    34    35    1
    30    34    36    1
    31    34    37    1
    32    31    32   ar
    33    32    33   ar
    34     8     9   ar
    35     9    10   ar
    36    10    11    2
    37    10     1   ar
    38     9     3   ar
    39    18    12   ar
    40    24    19   ar
    41    33    28   ar
@<TRIPOS>MOLECULE
*****
 37 41 0 0 0
SMALL
GASTEIGER

@<TRIPOS>ATOM
      1 N          61.9950   90.4571   10.1733 N.ar    1  UNL1       -0.1994
      2 N          63.1329   91.4342   10.1932 N.ar    1  UNL1       -0.1460
      3 C          63.9142   91.2102   11.4540 C.ar    1  UNL1        0.1860
      4 C          65.1375   91.8779   12.0087 C.ar    1  UNL1        0.0422
      5 C          65.7057   91.4301   13.3227 C.ar    1  UNL1        0.0606
      6 C          65.0507   90.3145   14.0820 C.ar    1  UNL1        0.2756
      7 O          65.6189   89.8667   15.3959 O.2     1  UNL1       -0.2655
      8 N          63.8273   89.6468   13.5272 N.ar    1  UNL1       -0.2229
      9 N          63.2592   90.0947   12.2132 N.ar    1  UNL1       -0.1765
     10 C          62.0730   89.6293   11.4217 C.ar    1  UNL1        0.3669
     11 O          61.1304   88.5291   11.8104 O.2     1  UNL1       -0.2429
     12 C          65.7926   92.9935   11.2495 C.ar    1  UNL1        0.0032
     13 C          65.4943   94.4196   11.6058 C.ar    1  UNL1        0.0010
     14 C          66.1493   95.5352   10.8466 C.ar    1  UNL1        0.0114
     15 C          67.1027   95.2246    9.7310 C.ar    1  UNL1        0.0577
     16 CL         67.7578   96.3401    8.9718 Cl      1  UNL1       -0.0822
     17 C          67.4010   93.7983    9.3746 C.ar    1  UNL1        0.0114
     18 C          66.7460   92.6828   10.1338 C.ar    1  UNL1        0.0010
     19 C          66.9290   92.0978   13.8774 C.ar    1  UNL1        0.0078
     20 C          68.2898   91.6884   13.3973 C.ar    1  UNL1        0.0208
     21 C          69.5131   92.3561   13.9521 C.ar    1  UNL1        0.0989
     22 N          69.3756   93.4332   14.9870 N.ar    1  UNL1       -0.2423
     23 C          68.0147   93.8426   15.4671 C.ar    1  UNL1        0.0989
     24 C          66.7914   93.1749   14.9123 C.ar    1  UNL1        0.0208
     25 C          60.3596   88.9911    8.7854 C.3     1  UNL1        0.0286
     26 C          60.9607   90.3302    9.0943 C.3     1  UNL1        0.1324
     27 C          63.1723   88.5313   14.2864 C.3     1  UNL1        0.1572
     28 C          63.5012   87.1053   13.9568 C.ar    1  UNL1        0.0213
     29 C          64.3709   86.3037   14.8792 C.ar    1  UNL1        0.0007
     30 C          64.6998   84.8779   14.5495 C.ar    1  UNL1        0.0228
     31 C          64.1589   84.2536   13.2974 C.ar    1  UNL1        0.1526
     32 N          63.2891   85.0552   12.3750 N.ar    1  UNL1       -0.2401
     33 C          62.9603   86.4811   12.7047 C.ar    1  UNL1        0.0964
     34 C          64.4877   82.8277   12.9678 C.3     1  UNL1        0.4348
     35 F          64.8166   81.4018   12.6382 F       1  UNL1       -0.1644
     36 F          64.1165   82.4195   14.3626 F       1  UNL1       -0.1644
     37 F          64.8590   83.2358   11.5730 F       1  UNL1       -0.1644
@<TRIPOS>BOND
     1    25    26    1
     2    26     1    1
     3     1     2   ar
     4     2     3   ar
     5     3     4   ar
     6     4    12    1
     7    12    13   ar
     8    13    14   ar
     9    14    15   ar
    10    15    16    1
    11    15    17   ar
    12    17    18   ar
    13     4     5   ar
    14     5    19    1
    15    19    20   ar
    16    20    21   ar
    17    21    22   ar
    18    22    23   ar
    19    23    24   ar
    20     5     6   ar
    21     6     7    2
    22     6     8   ar
    23     8    27    1
    24    27    28    1
    25    28    29   ar
    26    29    30   ar
    27    30    31   ar
    28    31    34    1
    29    34    35    1
    30    34    36    1
    31    34    37    1
    32    31    32   ar
    33    32    33   ar
    34     8     9   ar
    35     9    10   ar
    36    10    11    2
    37    10     1   ar
    38     9     3   ar
    39    18    12   ar
    40    24    19   ar
    41    33    28   ar
@<TRIPOS>MOLECULE
*****
 37 41 0 0 0
SMALL
GASTEIGER

@<TRIPOS>ATOM
      1 N          60.5404   87.2917    8.7268 N.ar    1  UNL1       -0.1994
      2 N          61.1254   86.0325    9.2945 N.ar    1  UNL1       -0.1460
      3 C          61.8082   86.3790   10.5843 C.ar    1  UNL1        0.1860
      4 C          62.5574   85.5433   11.5795 C.ar    1  UNL1        0.0422
      5 C          63.1436   86.1810   12.8042 C.ar    1  UNL1        0.0606
      6 C          62.9806   87.6543   13.0337 C.ar    1  UNL1        0.2756
      7 O          63.5667   88.2920   14.2584 O.2     1  UNL1       -0.2655
      8 N          62.2314   88.4900   12.0385 N.ar    1  UNL1       -0.2229
      9 N          61.6453   87.8524   10.8138 N.ar    1  UNL1       -0.1765
     10 C          60.8617   88.4164    9.6659 C.ar    1  UNL1        0.3669
     11 O          60.4685   89.8530    9.4881 O.2     1  UNL1       -0.2429
     12 C          62.7203   84.0700   11.3500 C.ar    1  UNL1        0.0032
     13 C          62.0163   83.0898   12.2407 C.ar    1  UNL1        0.0010
     14 C          62.1793   81.6164   12.0112 C.ar    1  UNL1        0.0114
     15 C          63.0463   81.1233   10.8910 C.ar    1  UNL1        0.0577
     16 CL         63.2093   79.6499   10.6615 Cl      1  UNL1       -0.0822
     17 C          63.7504   82.1035   10.0001 C.ar    1  UNL1        0.0114
     18 C          63.5874   83.5769   10.2296 C.ar    1  UNL1        0.0010
     19 C          63.8927   85.3453   13.7994 C.ar    1  UNL1        0.0078
     20 C          63.1449   84.5853   14.8545 C.ar    1  UNL1        0.0208
     21 C          63.8941   83.7496   15.8496 C.ar    1  UNL1        0.0989
     22 N          65.3910   83.6738   15.7897 N.ar    1  UNL1       -0.2423
     23 C          66.1387   84.4338   14.7345 C.ar    1  UNL1        0.0989
     24 C          65.3895   85.2695   13.7394 C.ar    1  UNL1        0.0208
     25 C          59.1994   88.7294    7.0284 C.3     1  UNL1        0.0286
     26 C          59.7694   87.4061    7.4452 C.3     1  UNL1        0.1324
     27 C          62.0684   89.9634   12.2680 C.3     1  UNL1        0.1572
     28 C          63.1855   90.9040   11.9250 C.ar    1  UNL1        0.0213
     29 C          63.4184   91.3031   10.4980 C.ar    1  UNL1        0.0007
     30 C          64.5354   92.2436   10.1550 C.ar    1  UNL1        0.0228
     31 C          65.4195   92.7850   11.2391 C.ar    1  UNL1        0.1526
     32 N          65.1866   92.3859   12.6661 N.ar    1  UNL1       -0.2401
     33 C          64.0696   91.4454   13.0090 C.ar    1  UNL1        0.0964
     34 C          66.5366   93.7256   10.8960 C.3     1  UNL1        0.4348
     35 F          67.6536   94.6660   10.5530 F       1  UNL1       -0.1644
     36 F          65.8164   94.8375   11.5995 F       1  UNL1       -0.1644
     37 F          67.2567   92.6136   10.1925 F       1  UNL1       -0.1644
@<TRIPOS>BOND
     1    25    26    1
     2    26     1    1
     3     1     2   ar
     4     2     3   ar
     5     3     4   ar
     6     4    12    1
     7    12    13   ar
     8    13    14   ar
     9    14    15   ar
    10    15    16    1
    11    15    17   ar
    12    17    18   ar
    13     4     5   ar
    14     5    19    1
    15    19    20   ar
    16    20    21   ar
    17    21    22   ar
    18    22    23   ar
    19    23    24   ar
    20     5     6   ar
    21     6     7    2
    22     6     8   ar
    23     8    27    1
    24    27    28    1
    25    28    29   ar
    26    29    30   ar
    27    30    31   ar
    28    31    34    1
    29    34    35    1
    30    34    36    1
    31    34    37    1
    32    31    32   ar
    33    32    33   ar
    34     8     9   ar
    35     9    10   ar
    36    10    11    2
    37    10     1   ar
    38     9     3   ar
    39    18    12   ar
    40    24    19   ar
    41    33    28   ar
