@<TRIPOS>MOLECULE
*****
 30 34 0 0 0
SMALL
GASTEIGER

@<TRIPOS>ATOM
      1 C          62.9154   85.6994   11.9533 C.2     1  UNL1       -0.0007
      2 C          62.1946   86.4336   10.8618 C.2     1  UNL1        0.0192
      3 C          62.1546   87.9331   10.8661 C.2     1  UNL1        0.1207
      4 N          61.5264   88.9230    9.9305 N.2     1  UNL1       -0.0381
      5 N          61.8190   90.3001   10.4481 N.2     1  UNL1        0.0756
      6 C          62.6280   90.1613   11.7036 C.2     1  UNL1        0.3335
      7 C          62.8354   88.6983   11.9619 C.3     1  UNL1        0.1733
      8 C          63.5563   87.9641   13.0534 C.2     1  UNL1       -0.0125
      9 C          63.5962   86.4647   13.0491 C.2     1  UNL1       -0.0257
     10 C          61.7563   81.1604   14.2014 C.3     1  UNL1        0.0545
     11 C          62.3759   81.9304   13.0730 C.ar    1  UNL1        0.0867
     12 N          63.0354   81.2010   11.9404 N.ar    1  UNL1       -0.2459
     13 C          63.6550   81.9711   10.8120 C.ar    1  UNL1        0.0986
     14 C          63.6150   83.4705   10.8163 C.ar    1  UNL1        0.0229
     15 C          62.9555   84.1999   11.9490 C.ar    1  UNL1        0.0299
     16 C          62.3359   83.4299   13.0773 C.ar    1  UNL1        0.1535
     17 F          61.6763   84.1592   14.2100 F       1  UNL1       -0.2029
     18 C          64.3171   85.7305   14.1406 C.3     1  UNL1        0.0221
     19 C          65.4418   84.8440   14.5868 C.3     1  UNL1        0.0047
     20 C          64.4409   85.3455   15.5851 C.3     1  UNL1        0.0047
     21 N          63.1398   91.2876   12.5518 N.pl3   1  UNL1       -0.2209
     22 H          62.5354   91.7441   13.1807 H       1  UNL1        0.2920
     23 C          64.5724   91.7185   12.4417 C.3     1  UNL1        0.1917
     24 C          65.0864   92.2913   11.1543 C.3     1  UNL1        0.0664
     25 C          66.5190   92.7222   11.0441 C.3     1  UNL1        0.0729
     26 N          67.4375   92.5801   12.2216 N.3     1  UNL1       -0.2950
     27 C          66.9233   92.0072   13.5090 C.3     1  UNL1        0.1085
     28 C          65.4908   91.5764   13.6191 C.3     1  UNL1        0.2186
     29 F          64.9767   91.0036   14.9065 F       1  UNL1       -0.2315
     30 H          67.7898   93.5134   12.4345 H       1  UNL1        0.1233
@<TRIPOS>BOND
     1    10    11    1
     2    11    12   ar
     3    12    13   ar
     4    13    14   ar
     5    14    15   ar
     6    15     1    1
     7     1     2    2
     8     2     3    1
     9     3     4    2
    10     4     5    1
    11     5     6    2
    12     6    21    1
    13    23    21    1
    14    23    24    1
    15    24    25    1
    16    25    26    1
    17    26    27    1
    18    27    28    1
    19    28    29    1
    20     6     7    1
    21     7     8    1
    22     8     9    2
    23     9    18    1
    24    18    19    1
    25    19    20    1
    26    15    16   ar
    27    16    17    1
    28    16    11   ar
    29     9     1    1
    30    20    18    1
    31     7     3    1
    32    28    23    1
    33    21    22    1
    34    26    30    1
@<TRIPOS>MOLECULE
*****
 30 34 0 0 0
SMALL
GASTEIGER

@<TRIPOS>ATOM
      1 C          64.6209   89.6774   14.3234 C.2     1  UNL1       -0.0007
      2 C          65.6918   90.4357   15.0502 C.2     1  UNL1        0.0192
      3 C          66.1402   91.7736   14.5413 C.2     1  UNL1        0.1207
      4 N          67.1668   92.7455   15.0428 N.2     1  UNL1       -0.0381
      5 N          67.1788   93.9257   14.1171 N.2     1  UNL1        0.0756
      6 C          66.1597   93.6832   13.0435 C.2     1  UNL1        0.3335
      7 C          65.5178   92.3531   13.3057 C.3     1  UNL1        0.1733
      8 C          64.4469   91.5947   12.5790 C.2     1  UNL1       -0.0125
      9 C          63.9985   90.2569   13.0879 C.2     1  UNL1       -0.0257
     10 C          62.4649   86.7740   18.0547 C.3     1  UNL1        0.0545
     11 C          63.0945   86.8878   16.6980 C.ar    1  UNL1        0.0867
     12 N          63.2756   85.6637   15.8501 N.ar    1  UNL1       -0.2459
     13 C          63.9051   85.7775   14.4934 C.ar    1  UNL1        0.0986
     14 C          64.3536   87.1154   13.9845 C.ar    1  UNL1        0.0229
     15 C          64.1724   88.3394   14.8323 C.ar    1  UNL1        0.0299
     16 C          63.5429   88.2256   16.1891 C.ar    1  UNL1        0.1535
     17 F          63.3618   89.4497   17.0369 F       1  UNL1       -0.2029
     18 C          62.9276   89.4985   12.3611 C.3     1  UNL1        0.0221
     19 C          62.5220   88.3997   11.4241 C.3     1  UNL1        0.0047
     20 C          61.4783   89.2840   12.0393 C.3     1  UNL1        0.0047
     21 N          65.8388   94.6084   11.9073 N.pl3   1  UNL1       -0.2209
     22 H          65.1490   95.3022   12.0171 H       1  UNL1        0.2920
     23 C          66.5689   94.4765   10.6036 C.3     1  UNL1        0.1917
     24 C          67.3300   93.2216   10.2939 C.3     1  UNL1        0.0664
     25 C          68.0601   93.0897    8.9902 C.3     1  UNL1        0.0729
     26 N          68.0290   94.2127    7.9962 N.3     1  UNL1       -0.2950
     27 C          67.2679   95.4676    8.3060 C.3     1  UNL1        0.1085
     28 C          66.5379   95.5995    9.6096 C.3     1  UNL1        0.2186
     29 F          65.7767   96.8544    9.9194 F       1  UNL1       -0.2315
     30 H          67.6339   93.8335    7.1357 H       1  UNL1        0.1233
@<TRIPOS>BOND
     1    10    11    1
     2    11    12   ar
     3    12    13   ar
     4    13    14   ar
     5    14    15   ar
     6    15     1    1
     7     1     2    2
     8     2     3    1
     9     3     4    2
    10     4     5    1
    11     5     6    2
    12     6    21    1
    13    23    21    1
    14    23    24    1
    15    24    25    1
    16    25    26    1
    17    26    27    1
    18    27    28    1
    19    28    29    1
    20     6     7    1
    21     7     8    1
    22     8     9    2
    23     9    18    1
    24    18    19    1
    25    19    20    1
    26    15    16   ar
    27    16    17    1
    28    16    11   ar
    29     9     1    1
    30    20    18    1
    31     7     3    1
    32    28    23    1
    33    21    22    1
    34    26    30    1
@<TRIPOS>MOLECULE
*****
 30 34 0 0 0
SMALL
GASTEIGER

@<TRIPOS>ATOM
      1 C          62.8081   85.9825   12.2733 C.2     1  UNL1       -0.0007
      2 C          62.0986   86.6327   11.1227 C.2     1  UNL1        0.0192
      3 C          62.1297   88.1244   10.9687 C.2     1  UNL1        0.1207
      4 N          61.5283   89.0404    9.9444 N.2     1  UNL1       -0.0381
      5 N          61.8972   90.4481   10.3080 N.2     1  UNL1        0.0756
      6 C          62.7266   90.4021   11.5570 C.2     1  UNL1        0.3335
      7 C          62.8703   88.9660   11.9654 C.3     1  UNL1        0.1733
      8 C          63.5798   88.3158   13.1160 C.2     1  UNL1       -0.0125
      9 C          63.5487   86.8240   13.2699 C.2     1  UNL1       -0.0257
     10 C          63.5890   81.2380   10.3035 C.3     1  UNL1        0.0545
     11 C          63.1675   82.1185   11.4424 C.ar    1  UNL1        0.0867
     12 N          62.7148   81.5072   12.7352 N.ar    1  UNL1       -0.2459
     13 C          62.2933   82.3877   13.8741 C.ar    1  UNL1        0.0986
     14 C          62.3244   83.8794   13.7202 C.ar    1  UNL1        0.0229
     15 C          62.7770   84.4907   12.4273 C.ar    1  UNL1        0.0299
     16 C          63.1985   83.6102   11.2884 C.ar    1  UNL1        0.1535
     17 F          63.6512   84.2215    9.9956 F       1  UNL1       -0.2029
     18 C          64.2582   86.1739   14.4206 C.3     1  UNL1        0.0221
     19 C          65.4448   85.4353   14.9651 C.3     1  UNL1        0.0047
     20 C          64.3004   85.7864   15.8691 C.3     1  UNL1        0.0047
     21 N          63.3099   91.5847   12.2721 N.pl3   1  UNL1       -0.2209
     22 H          62.7321   92.1613   12.8223 H       1  UNL1        0.2920
     23 C          64.7736   91.8887   12.1488 C.3     1  UNL1        0.1917
     24 C          65.3348   92.3554   10.8384 C.3     1  UNL1        0.0664
     25 C          66.7985   92.6594   10.7150 C.3     1  UNL1        0.0729
     26 N          67.7009   92.4966   11.9022 N.3     1  UNL1       -0.2950
     27 C          67.1396   92.0298   13.2125 C.3     1  UNL1        0.1085
     28 C          65.6760   91.7258   13.3358 C.3     1  UNL1        0.2186
     29 F          65.1147   91.2590   14.6462 F       1  UNL1       -0.2315
     30 H          68.1300   93.4061   12.0729 H       1  UNL1        0.1233
@<TRIPOS>BOND
     1    10    11    1
     2    11    12   ar
     3    12    13   ar
     4    13    14   ar
     5    14    15   ar
     6    15     1    1
     7     1     2    2
     8     2     3    1
     9     3     4    2
    10     4     5    1
    11     5     6    2
    12     6    21    1
    13    23    21    1
    14    23    24    1
    15    24    25    1
    16    25    26    1
    17    26    27    1
    18    27    28    1
    19    28    29    1
    20     6     7    1
    21     7     8    1
    22     8     9    2
    23     9    18    1
    24    18    19    1
    25    19    20    1
    26    15    16   ar
    27    16    17    1
    28    16    11   ar
    29     9     1    1
    30    20    18    1
    31     7     3    1
    32    28    23    1
    33    21    22    1
    34    26    30    1
@<TRIPOS>MOLECULE
*****
 30 34 0 0 0
SMALL
GASTEIGER

@<TRIPOS>ATOM
      1 C          62.0917   88.2081   10.2604 C.2     1  UNL1       -0.0007
      2 C          62.2973   89.6724   10.0082 C.2     1  UNL1        0.0192
      3 C          63.0703   90.5013   10.9907 C.2     1  UNL1        0.1207
      4 N          63.4323   91.9568   11.0102 N.2     1  UNL1       -0.0381
      5 N          64.2234   92.2210   12.2569 N.2     1  UNL1        0.0756
      6 C          64.3504   90.9288   13.0079 C.2     1  UNL1        0.3335
      7 C          63.6377   89.8659   12.2253 C.3     1  UNL1        0.1733
      8 C          63.4321   88.4016   12.4774 C.2     1  UNL1       -0.0125
      9 C          62.6591   87.5727   11.4949 C.2     1  UNL1       -0.0257
     10 C          61.9748   84.5745    6.5476 C.3     1  UNL1        0.0545
     11 C          61.2602   85.5623    7.4215 C.ar    1  UNL1        0.0867
     12 N          59.7726   85.7213    7.3128 N.ar    1  UNL1       -0.2459
     13 C          59.0580   86.7091    8.1866 C.ar    1  UNL1        0.0986
     14 C          59.8310   87.5380    9.1691 C.ar    1  UNL1        0.0229
     15 C          61.3186   87.3791    9.2778 C.ar    1  UNL1        0.0299
     16 C          62.0332   86.3913    8.4040 C.ar    1  UNL1        0.1535
     17 F          63.5208   86.2323    8.5127 F       1  UNL1       -0.2029
     18 C          62.4535   86.1084   11.7471 C.3     1  UNL1        0.0221
     19 C          62.2796   84.9670   12.7046 C.3     1  UNL1        0.0047
     20 C          62.2715   84.7136   11.2262 C.3     1  UNL1        0.0047
     21 N          65.0647   90.7337   14.3124 N.pl3   1  UNL1       -0.2209
     22 H          64.7326   90.0719   14.9612 H       1  UNL1        0.2920
     23 C          66.2849   91.5469   14.6283 C.3     1  UNL1        0.1917
     24 C          67.4838   91.4804   13.7295 C.3     1  UNL1        0.0664
     25 C          68.7040   92.2936   14.0454 C.3     1  UNL1        0.0729
     26 N          68.7251   93.1734   15.2603 N.3     1  UNL1       -0.2950
     27 C          67.5261   93.2398   16.1591 C.3     1  UNL1        0.1085
     28 C          66.3060   92.4266   15.8431 C.3     1  UNL1        0.2186
     29 F          65.1069   92.4931   16.7419 F       1  UNL1       -0.2315
     30 H          68.9007   94.1233   14.9329 H       1  UNL1        0.1233
@<TRIPOS>BOND
     1    10    11    1
     2    11    12   ar
     3    12    13   ar
     4    13    14   ar
     5    14    15   ar
     6    15     1    1
     7     1     2    2
     8     2     3    1
     9     3     4    2
    10     4     5    1
    11     5     6    2
    12     6    21    1
    13    23    21    1
    14    23    24    1
    15    24    25    1
    16    25    26    1
    17    26    27    1
    18    27    28    1
    19    28    29    1
    20     6     7    1
    21     7     8    1
    22     8     9    2
    23     9    18    1
    24    18    19    1
    25    19    20    1
    26    15    16   ar
    27    16    17    1
    28    16    11   ar
    29     9     1    1
    30    20    18    1
    31     7     3    1
    32    28    23    1
    33    21    22    1
    34    26    30    1
@<TRIPOS>MOLECULE
*****
 30 34 0 0 0
SMALL
GASTEIGER

@<TRIPOS>ATOM
      1 C          63.2684   85.5401   12.4509 C.2     1  UNL1       -0.0007
      2 C          63.8365   85.9985   13.7614 C.2     1  UNL1        0.0192
      3 C          63.9575   87.4646   14.0545 C.2     1  UNL1        0.1207
      4 N          64.4740   88.2099   15.2494 N.2     1  UNL1       -0.0381
      5 N          64.3462   89.6782   14.9706 N.2     1  UNL1        0.0756
      6 C          63.7507   89.8404   13.6034 C.2     1  UNL1        0.3335
      7 C          63.5104   88.4722   13.0372 C.3     1  UNL1        0.1733
      8 C          62.9424   88.0138   11.7269 C.2     1  UNL1       -0.0125
      9 C          62.8214   86.5477   11.4337 C.2     1  UNL1       -0.0257
     10 C          61.5732   80.8107   13.7773 C.3     1  UNL1        0.0545
     11 C          62.2998   81.7093   12.8209 C.ar    1  UNL1        0.0867
     12 N          62.9054   81.1418   11.5714 N.ar    1  UNL1       -0.2459
     13 C          63.6320   82.0404   10.6151 C.ar    1  UNL1        0.0986
     14 C          63.7530   83.5065   10.9082 C.ar    1  UNL1        0.0229
     15 C          63.1474   84.0740   12.1577 C.ar    1  UNL1        0.0299
     16 C          62.4208   83.1754   13.1141 C.ar    1  UNL1        0.1535
     17 F          61.8153   83.7428   14.3635 F       1  UNL1       -0.2029
     18 C          62.2533   86.0893   10.1233 C.3     1  UNL1        0.0221
     19 C          62.4521   85.6682    8.6974 C.3     1  UNL1        0.0047
     20 C          61.0705   85.7165    9.2795 C.3     1  UNL1        0.0047
     21 N          63.4484   91.1421   12.9221 N.pl3   1  UNL1       -0.2209
     22 H          62.5150   91.4354   12.8129 H       1  UNL1        0.2920
     23 C          64.5684   91.9968   12.4071 C.3     1  UNL1        0.1917
     24 C          65.5931   92.5424   13.3569 C.3     1  UNL1        0.0664
     25 C          66.7131   93.3972   12.8420 C.3     1  UNL1        0.0729
     26 N          66.8081   93.7063   11.3772 N.3     1  UNL1       -0.2950
     27 C          65.7833   93.1607   10.4275 C.3     1  UNL1        0.1085
     28 C          64.6634   92.3060   10.9424 C.3     1  UNL1        0.2186
     29 F          63.6386   91.7604    9.9927 F       1  UNL1       -0.2315
     30 H          67.7148   93.3618   11.0618 H       1  UNL1        0.1233
@<TRIPOS>BOND
     1    10    11    1
     2    11    12   ar
     3    12    13   ar
     4    13    14   ar
     5    14    15   ar
     6    15     1    1
     7     1     2    2
     8     2     3    1
     9     3     4    2
    10     4     5    1
    11     5     6    2
    12     6    21    1
    13    23    21    1
    14    23    24    1
    15    24    25    1
    16    25    26    1
    17    26    27    1
    18    27    28    1
    19    28    29    1
    20     6     7    1
    21     7     8    1
    22     8     9    2
    23     9    18    1
    24    18    19    1
    25    19    20    1
    26    15    16   ar
    27    16    17    1
    28    16    11   ar
    29     9     1    1
    30    20    18    1
    31     7     3    1
    32    28    23    1
    33    21    22    1
    34    26    30    1
@<TRIPOS>MOLECULE
*****
 30 34 0 0 0
SMALL
GASTEIGER

@<TRIPOS>ATOM
      1 C          65.7732   92.1913   11.7840 C.2     1  UNL1       -0.0007
      2 C          64.3871   91.8305   11.3382 C.2     1  UNL1        0.0192
      3 C          63.5042   91.0059   12.2272 C.2     1  UNL1        0.1207
      4 N          62.1029   90.4982   12.0581 N.2     1  UNL1       -0.0381
      5 N          61.7399   89.7208   13.2885 N.2     1  UNL1        0.0756
      6 C          62.9169   89.7479   14.2180 C.2     1  UNL1        0.3335
      7 C          64.0073   90.5421   13.5621 C.3     1  UNL1        0.1733
      8 C          65.3933   90.9030   14.0079 C.2     1  UNL1       -0.0125
      9 C          66.2762   91.7276   13.1188 C.2     1  UNL1       -0.0257
     10 C          67.1844   96.8171    9.8836 C.3     1  UNL1        0.0545
     11 C          67.3617   95.3288    9.9447 C.ar    1  UNL1        0.0867
     12 N          68.4219   94.6652    9.1167 N.ar    1  UNL1       -0.2459
     13 C          68.5992   93.1770    9.1778 C.ar    1  UNL1        0.0986
     14 C          67.7163   92.3524   10.0669 C.ar    1  UNL1        0.0229
     15 C          66.6561   93.0160   10.8949 C.ar    1  UNL1        0.0299
     16 C          66.4788   94.5042   10.8338 C.ar    1  UNL1        0.1535
     17 F          65.4186   95.1678   11.6617 F       1  UNL1       -0.2029
     18 C          67.6623   92.0884   13.5646 C.3     1  UNL1        0.0221
     19 C          68.5771   92.7811   14.5307 C.3     1  UNL1        0.0047
     20 C          69.1482   92.0207   13.3706 C.3     1  UNL1        0.0047
     21 N          62.9906   89.0953   15.5666 N.pl3   1  UNL1       -0.2209
     22 H          62.7072   89.5902   16.3691 H       1  UNL1        0.2920
     23 C          63.4960   87.6886   15.6925 C.3     1  UNL1        0.1917
     24 C          64.4634   87.1461   14.6828 C.3     1  UNL1        0.0664
     25 C          64.9688   85.7394   14.8087 C.3     1  UNL1        0.0729
     26 N          64.5067   84.8753   15.9445 N.3     1  UNL1       -0.2950
     27 C          63.5392   85.4179   16.9542 C.3     1  UNL1        0.1085
     28 C          63.0339   86.8245   16.8282 C.3     1  UNL1        0.2186
     29 F          62.0664   87.3671   17.8379 F       1  UNL1       -0.2315
     30 H          65.3414   84.5933   16.4584 H       1  UNL1        0.1233
@<TRIPOS>BOND
     1    10    11    1
     2    11    12   ar
     3    12    13   ar
     4    13    14   ar
     5    14    15   ar
     6    15     1    1
     7     1     2    2
     8     2     3    1
     9     3     4    2
    10     4     5    1
    11     5     6    2
    12     6    21    1
    13    23    21    1
    14    23    24    1
    15    24    25    1
    16    25    26    1
    17    26    27    1
    18    27    28    1
    19    28    29    1
    20     6     7    1
    21     7     8    1
    22     8     9    2
    23     9    18    1
    24    18    19    1
    25    19    20    1
    26    15    16   ar
    27    16    17    1
    28    16    11   ar
    29     9     1    1
    30    20    18    1
    31     7     3    1
    32    28    23    1
    33    21    22    1
    34    26    30    1
@<TRIPOS>MOLECULE
*****
 30 34 0 0 0
SMALL
GASTEIGER

@<TRIPOS>ATOM
      1 C          65.8237   91.6404   12.8821 C.2     1  UNL1       -0.0007
      2 C          64.8275   90.9099   13.7331 C.2     1  UNL1        0.0192
      3 C          63.5015   90.5085   13.1581 C.2     1  UNL1        0.1207
      4 N          62.3284   89.7853   13.7503 N.2     1  UNL1       -0.0381
      5 N          61.2735   89.6675   12.6905 N.2     1  UNL1        0.0756
      6 C          61.7947   90.3178   11.4433 C.2     1  UNL1        0.3335
      7 C          63.1717   90.8376   11.7323 C.3     1  UNL1        0.1733
      8 C          64.1679   91.5681   10.8814 C.2     1  UNL1       -0.0125
      9 C          65.4939   91.9695   11.4564 C.2     1  UNL1       -0.0257
     10 C          68.5915   94.3303   16.3613 C.3     1  UNL1        0.0545
     11 C          68.5336   93.3868   15.1966 C.ar    1  UNL1        0.0867
     12 N          69.8018   92.8447   14.6069 N.ar    1  UNL1       -0.2459
     13 C          69.7440   91.9012   13.4422 C.ar    1  UNL1        0.0986
     14 C          68.4180   91.4998   12.8673 C.ar    1  UNL1        0.0229
     15 C          67.1498   92.0419   13.4570 C.ar    1  UNL1        0.0299
     16 C          67.2076   92.9854   14.6217 C.ar    1  UNL1        0.1535
     17 F          65.9395   93.5275   15.2115 F       1  UNL1       -0.2029
     18 C          66.4901   92.7000   10.6054 C.3     1  UNL1        0.0221
     19 C          67.6831   92.6817    9.6964 C.3     1  UNL1        0.0047
     20 C          67.0224   93.9836   10.0405 C.3     1  UNL1        0.0047
     21 N          61.0666   90.4288   10.1365 N.pl3   1  UNL1       -0.2209
     22 H          60.8028   91.3131    9.7936 H       1  UNL1        0.2920
     23 C          60.7406   89.1924    9.3522 C.3     1  UNL1        0.1917
     24 C          59.6403   89.2191    8.3332 C.3     1  UNL1        0.0664
     25 C          59.3142   87.9828    7.5488 C.3     1  UNL1        0.0729
     26 N          60.0887   86.7197    7.7836 N.3     1  UNL1       -0.2950
     27 C          61.1890   86.6931    8.8027 C.3     1  UNL1        0.1085
     28 C          61.5150   87.9294    9.5869 C.3     1  UNL1        0.2186
     29 F          62.6154   87.9027   10.6060 F       1  UNL1       -0.2315
     30 H          60.5081   86.4612    6.8905 H       1  UNL1        0.1233
@<TRIPOS>BOND
     1    10    11    1
     2    11    12   ar
     3    12    13   ar
     4    13    14   ar
     5    14    15   ar
     6    15     1    1
     7     1     2    2
     8     2     3    1
     9     3     4    2
    10     4     5    1
    11     5     6    2
    12     6    21    1
    13    23    21    1
    14    23    24    1
    15    24    25    1
    16    25    26    1
    17    26    27    1
    18    27    28    1
    19    28    29    1
    20     6     7    1
    21     7     8    1
    22     8     9    2
    23     9    18    1
    24    18    19    1
    25    19    20    1
    26    15    16   ar
    27    16    17    1
    28    16    11   ar
    29     9     1    1
    30    20    18    1
    31     7     3    1
    32    28    23    1
    33    21    22    1
    34    26    30    1
@<TRIPOS>MOLECULE
*****
 30 34 0 0 0
SMALL
GASTEIGER

@<TRIPOS>ATOM
      1 C          65.2417   91.1259   13.3457 C.2     1  UNL1       -0.0007
      2 C          64.6137   89.8269   13.7560 C.2     1  UNL1        0.0192
      3 C          63.5993   89.1705   12.8670 C.2     1  UNL1        0.1207
      4 N          62.8169   87.8983   13.0056 N.2     1  UNL1       -0.0381
      5 N          61.9470   87.7546   11.7921 N.2     1  UNL1        0.0756
      6 C          62.1918   88.9380   10.9035 C.2     1  UNL1        0.3335
      7 C          63.2130   89.8131   11.5678 C.3     1  UNL1        0.1733
      8 C          63.8410   91.1121   11.1576 C.2     1  UNL1       -0.0125
      9 C          64.8554   91.7685   12.0466 C.2     1  UNL1       -0.0257
     10 C          70.1443   92.5759   14.2741 C.3     1  UNL1        0.0545
     11 C          68.7074   92.5073   14.6989 C.ar    1  UNL1        0.0867
     12 N          68.2847   93.0951   16.0126 N.ar    1  UNL1       -0.2459
     13 C          66.8478   93.0265   16.4374 C.ar    1  UNL1        0.0986
     14 C          65.8334   92.3701   15.5484 C.ar    1  UNL1        0.0229
     15 C          66.2561   91.7823   14.2347 C.ar    1  UNL1        0.0299
     16 C          67.6930   91.8510   13.8099 C.ar    1  UNL1        0.1535
     17 F          68.1156   91.2632   12.4962 F       1  UNL1       -0.2029
     18 C          65.4834   93.0675   11.6363 C.3     1  UNL1        0.0221
     19 C          66.0572   94.4049   11.9996 C.3     1  UNL1        0.0047
     20 C          65.9972   93.9799   10.5623 C.3     1  UNL1        0.0047
     21 N          61.5314   89.2003    9.5825 N.pl3   1  UNL1       -0.2209
     22 H          61.5500   90.1046    9.1937 H       1  UNL1        0.2920
     23 C          60.8426   88.0847    8.8537 C.3     1  UNL1        0.1917
     24 C          59.4114   88.2360    8.4312 C.3     1  UNL1        0.0664
     25 C          58.7225   87.1205    7.7024 C.3     1  UNL1        0.0729
     26 N          59.4650   85.8536    7.3963 N.3     1  UNL1       -0.2950
     27 C          60.8963   85.7023    7.8189 C.3     1  UNL1        0.1085
     28 C          61.5850   86.8178    8.5476 C.3     1  UNL1        0.2186
     29 F          63.0163   86.6665    8.9701 F       1  UNL1       -0.2315
     30 H          59.4432   85.7370    6.3832 H       1  UNL1        0.1233
@<TRIPOS>BOND
     1    10    11    1
     2    11    12   ar
     3    12    13   ar
     4    13    14   ar
     5    14    15   ar
     6    15     1    1
     7     1     2    2
     8     2     3    1
     9     3     4    2
    10     4     5    1
    11     5     6    2
    12     6    21    1
    13    23    21    1
    14    23    24    1
    15    24    25    1
    16    25    26    1
    17    26    27    1
    18    27    28    1
    19    28    29    1
    20     6     7    1
    21     7     8    1
    22     8     9    2
    23     9    18    1
    24    18    19    1
    25    19    20    1
    26    15    16   ar
    27    16    17    1
    28    16    11   ar
    29     9     1    1
    30    20    18    1
    31     7     3    1
    32    28    23    1
    33    21    22    1
    34    26    30    1
@<TRIPOS>MOLECULE
*****
 30 34 0 0 0
SMALL
GASTEIGER

@<TRIPOS>ATOM
      1 C          65.5421   92.3242   12.0064 C.2     1  UNL1       -0.0007
      2 C          64.2571   91.7728   11.4633 C.2     1  UNL1        0.0192
      3 C          63.3649   90.9468   12.3417 C.2     1  UNL1        0.1207
      4 N          62.0480   90.2754   12.0866 N.2     1  UNL1       -0.0381
      5 N          61.6269   89.5858   13.3504 N.2     1  UNL1        0.0756
      6 C          62.6835   89.8310   14.3865 C.2     1  UNL1        0.3335
      7 C          63.7577   90.6722   13.7631 C.3     1  UNL1        0.1733
      8 C          65.0426   91.2236   14.3061 C.2     1  UNL1       -0.0125
      9 C          65.9348   92.0496   13.4277 C.2     1  UNL1       -0.0257
     10 C          69.4899   92.6561    8.6439 C.3     1  UNL1        0.0545
     11 C          68.4083   93.3162    9.4467 C.ar    1  UNL1        0.0867
     12 N          68.2189   94.8023    9.3711 N.ar    1  UNL1       -0.2459
     13 C          67.1373   95.4623   10.1739 C.ar    1  UNL1        0.0986
     14 C          66.2451   94.6363   11.0523 C.ar    1  UNL1        0.0229
     15 C          66.4344   93.1503   11.1279 C.ar    1  UNL1        0.0299
     16 C          67.5160   92.4902   10.3251 C.ar    1  UNL1        0.1535
     17 F          67.7054   91.0041   10.4007 F       1  UNL1       -0.2029
     18 C          67.2199   92.6009   13.9707 C.3     1  UNL1        0.0221
     19 C          67.9461   93.5565   14.8703 C.3     1  UNL1        0.0047
     20 C          68.7193   92.6002   14.0115 C.3     1  UNL1        0.0047
     21 N          62.6686   89.3240   15.7982 N.pl3   1  UNL1       -0.2209
     22 H          62.3706   89.9122   16.5293 H       1  UNL1        0.2920
     23 C          63.1075   87.9209   16.0959 C.3     1  UNL1        0.1917
     24 C          62.6595   87.2470   17.3588 C.3     1  UNL1        0.0664
     25 C          63.0984   85.8439   17.6566 C.3     1  UNL1        0.0729
     26 N          63.9854   85.1148   16.6913 N.3     1  UNL1       -0.2950
     27 C          64.4334   85.7888   15.4283 C.3     1  UNL1        0.1085
     28 C          63.9944   87.1918   15.1307 C.3     1  UNL1        0.2186
     29 F          64.4424   87.8658   13.8677 F       1  UNL1       -0.2315
     30 H          63.4861   84.2700   16.4130 H       1  UNL1        0.1233
@<TRIPOS>BOND
     1    10    11    1
     2    11    12   ar
     3    12    13   ar
     4    13    14   ar
     5    14    15   ar
     6    15     1    1
     7     1     2    2
     8     2     3    1
     9     3     4    2
    10     4     5    1
    11     5     6    2
    12     6    21    1
    13    23    21    1
    14    23    24    1
    15    24    25    1
    16    25    26    1
    17    26    27    1
    18    27    28    1
    19    28    29    1
    20     6     7    1
    21     7     8    1
    22     8     9    2
    23     9    18    1
    24    18    19    1
    25    19    20    1
    26    15    16   ar
    27    16    17    1
    28    16    11   ar
    29     9     1    1
    30    20    18    1
    31     7     3    1
    32    28    23    1
    33    21    22    1
    34    26    30    1
