@<TRIPOS>MOLECULE
*****
 25 27 0 0 0
SMALL
GASTEIGER

@<TRIPOS>ATOM
      1 O          62.6867   86.3669   12.3308 O.2     1  UNL1       -0.2907
      2 C          62.6308   87.8345   12.0260 C.2     1  UNL1        0.1819
      3 C          63.5790   88.7781   12.7046 C.3     1  UNL1        0.0746
      4 C          63.5230   90.2458   12.3999 C.3     1  UNL1        0.0392
      5 C          62.5189   90.7698   11.4166 C.3     1  UNL1        0.0691
      6 C          61.5707   89.8262   10.7380 C.2     1  UNL1        0.1201
      7 O          60.5665   90.3503    9.7545 O.2     1  UNL1       -0.5092
      8 C          61.6266   88.3586   11.0427 C.2     1  UNL1        0.0936
      9 H          60.5315   91.2671    9.5642 H       1  UNL1        0.2917
     10 C          64.4713   91.1894   13.0786 C.ar    1  UNL1       -0.0005
     11 C          65.2414   92.1900   12.2689 C.ar    1  UNL1        0.0545
     12 CL         65.0632   92.2471   10.7805 Cl      1  UNL1       -0.0825
     13 C          66.1896   93.1336   12.9475 C.ar    1  UNL1        0.0111
     14 C          66.3677   93.0765   14.4358 C.ar    1  UNL1        0.0017
     15 C          65.5976   92.0758   15.2455 C.ar    1  UNL1        0.0111
     16 C          64.6494   91.1322   14.5668 C.ar    1  UNL1        0.0545
     17 CL         63.8793   90.1315   15.3765 Cl      1  UNL1       -0.0825
     18 S          60.6784   87.4150   10.3640 S.3     1  UNL1       -0.0806
     19 C          61.1520   86.5712    9.2178 C.ar    1  UNL1        0.0402
     20 C          62.5443   86.0131    9.2224 C.ar    1  UNL1        0.0073
     21 C          63.0179   85.1694    8.0762 C.ar    1  UNL1        0.0006
     22 C          62.0991   84.8837    6.9254 C.ar    1  UNL1        0.0009
     23 C          60.7068   85.4418    6.9208 C.ar    1  UNL1        0.0119
     24 C          60.2333   86.2855    8.0670 C.ar    1  UNL1        0.0636
     25 CL         58.8409   86.8436    8.0624 Cl      1  UNL1       -0.0817
@<TRIPOS>BOND
     1     1     2    2
     2     2     3    1
     3     3     4    1
     4     4    10    1
     5    10    11   ar
     6    11    12    1
     7    11    13   ar
     8    13    14   ar
     9    14    15   ar
    10    15    16   ar
    11    16    17    1
    12     4     5    1
    13     5     6    1
    14     6     7    1
    15     6     8    2
    16     8    18    1
    17    18    19    1
    18    19    20   ar
    19    20    21   ar
    20    21    22   ar
    21    22    23   ar
    22    23    24   ar
    23    24    25    1
    24     8     2    1
    25    24    19   ar
    26    16    10   ar
    27     7     9    1
@<TRIPOS>MOLECULE
*****
 25 27 0 0 0
SMALL
GASTEIGER

@<TRIPOS>ATOM
      1 O          60.4979   90.0868    9.9622 O.2     1  UNL1       -0.2907
      2 C          61.5612   89.6214   10.9124 C.2     1  UNL1        0.1819
      3 C          62.4844   90.6164   11.5507 C.3     1  UNL1        0.0746
      4 C          63.5477   90.1509   12.5008 C.3     1  UNL1        0.0392
      5 C          63.6877   88.6904   12.8127 C.3     1  UNL1        0.0691
      6 C          62.7644   87.6954   12.1744 C.2     1  UNL1        0.1201
      7 O          62.9043   86.2348   12.4863 O.2     1  UNL1       -0.5092
      8 C          61.7011   88.1609   11.2243 C.2     1  UNL1        0.0936
      9 H          63.5685   85.9440   13.0799 H       1  UNL1        0.2917
     10 C          64.4710   91.1460   13.1391 C.ar    1  UNL1       -0.0005
     11 C          65.2002   92.1446   12.2900 C.ar    1  UNL1        0.0545
     12 CL         65.0061   92.1481   10.8026 Cl      1  UNL1       -0.0825
     13 C          66.1235   93.1397   12.9282 C.ar    1  UNL1        0.0111
     14 C          66.3176   93.1362   14.4157 C.ar    1  UNL1        0.0017
     15 C          65.5884   92.1376   15.2648 C.ar    1  UNL1        0.0111
     16 C          64.6651   91.1425   14.6265 C.ar    1  UNL1        0.0545
     17 CL         63.9358   90.1439   15.4756 Cl      1  UNL1       -0.0825
     18 S          60.7778   87.1658   10.5860 S.3     1  UNL1       -0.0806
     19 C          61.2132   86.4167    9.3615 C.ar    1  UNL1        0.0402
     20 C          62.5774   85.7953    9.3080 C.ar    1  UNL1        0.0073
     21 C          63.0128   85.0462    8.0835 C.ar    1  UNL1        0.0006
     22 C          62.0839   84.9186    6.9125 C.ar    1  UNL1        0.0009
     23 C          60.7198   85.5400    6.9661 C.ar    1  UNL1        0.0119
     24 C          60.2844   86.2890    8.1906 C.ar    1  UNL1        0.0636
     25 CL         58.9202   86.9105    8.2442 Cl      1  UNL1       -0.0817
@<TRIPOS>BOND
     1     1     2    2
     2     2     3    1
     3     3     4    1
     4     4    10    1
     5    10    11   ar
     6    11    12    1
     7    11    13   ar
     8    13    14   ar
     9    14    15   ar
    10    15    16   ar
    11    16    17    1
    12     4     5    1
    13     5     6    1
    14     6     7    1
    15     6     8    2
    16     8    18    1
    17    18    19    1
    18    19    20   ar
    19    20    21   ar
    20    21    22   ar
    21    22    23   ar
    22    23    24   ar
    23    24    25    1
    24     8     2    1
    25    24    19   ar
    26    16    10   ar
    27     7     9    1
@<TRIPOS>MOLECULE
*****
 25 27 0 0 0
SMALL
GASTEIGER

@<TRIPOS>ATOM
      1 O          61.3028   88.9220   10.4911 O.2     1  UNL1       -0.2907
      2 C          62.1240   88.0931   11.4336 C.2     1  UNL1        0.1819
      3 C          62.1693   86.6021   11.2766 C.3     1  UNL1        0.0746
      4 C          62.9906   85.7732   12.2192 C.3     1  UNL1        0.0392
      5 C          63.7666   86.4354   13.3188 C.3     1  UNL1        0.0691
      6 C          63.7214   87.9264   13.4759 C.2     1  UNL1        0.1201
      7 O          64.4974   88.5887   14.5756 O.2     1  UNL1       -0.5092
      8 C          62.9001   88.7553   12.5333 C.2     1  UNL1        0.0936
      9 H          65.0104   88.0709   15.1644 H       1  UNL1        0.2917
     10 C          63.0358   84.2821   12.0621 C.ar    1  UNL1       -0.0005
     11 C          63.3952   83.6781   10.7369 C.ar    1  UNL1        0.0545
     12 CL         63.7094   84.5653    9.5688 Cl      1  UNL1       -0.0825
     13 C          63.4404   82.1871   10.5798 C.ar    1  UNL1        0.0111
     14 C          63.1263   81.2999   11.7479 C.ar    1  UNL1        0.0017
     15 C          62.7669   81.9039   13.0730 C.ar    1  UNL1        0.0111
     16 C          62.7217   83.3950   13.2301 C.ar    1  UNL1        0.0545
     17 CL         62.3623   83.9990   14.5553 Cl      1  UNL1       -0.0825
     18 S          62.8548   90.2464   12.6904 S.3     1  UNL1       -0.0806
     19 C          64.0613   91.0727   12.3563 C.ar    1  UNL1        0.0402
     20 C          65.1065   91.3305   13.4009 C.ar    1  UNL1        0.0073
     21 C          66.3130   92.1568   13.0668 C.ar    1  UNL1        0.0006
     22 C          66.4743   92.7252   11.6880 C.ar    1  UNL1        0.0009
     23 C          65.4292   92.4673   10.6434 C.ar    1  UNL1        0.0119
     24 C          64.2227   91.6411   10.9776 C.ar    1  UNL1        0.0636
     25 CL         63.1775   91.3832    9.9329 Cl      1  UNL1       -0.0817
@<TRIPOS>BOND
     1     1     2    2
     2     2     3    1
     3     3     4    1
     4     4    10    1
     5    10    11   ar
     6    11    12    1
     7    11    13   ar
     8    13    14   ar
     9    14    15   ar
    10    15    16   ar
    11    16    17    1
    12     4     5    1
    13     5     6    1
    14     6     7    1
    15     6     8    2
    16     8    18    1
    17    18    19    1
    18    19    20   ar
    19    20    21   ar
    20    21    22   ar
    21    22    23   ar
    22    23    24   ar
    23    24    25    1
    24     8     2    1
    25    24    19   ar
    26    16    10   ar
    27     7     9    1
@<TRIPOS>MOLECULE
*****
 25 27 0 0 0
SMALL
GASTEIGER

@<TRIPOS>ATOM
      1 O          64.5020   88.5893   14.6049 O.2     1  UNL1       -0.2907
      2 C          63.7337   87.9363   13.4944 C.2     1  UNL1        0.1819
      3 C          63.7685   86.4454   13.3339 C.3     1  UNL1        0.0746
      4 C          63.0002   85.7924   12.2233 C.3     1  UNL1        0.0392
      5 C          62.1972   86.6305   11.2732 C.3     1  UNL1        0.0691
      6 C          62.1624   88.1214   11.4336 C.2     1  UNL1        0.1201
      7 O          61.3594   88.9595   10.4834 O.2     1  UNL1       -0.5092
      8 C          62.9307   88.7744   12.5442 C.2     1  UNL1        0.0936
      9 H          60.8795   88.5517    9.7897 H       1  UNL1        0.2917
     10 C          63.0349   84.3014   12.0629 C.ar    1  UNL1       -0.0005
     11 C          63.3942   83.6979   10.7375 C.ar    1  UNL1        0.0545
     12 CL         63.7187   84.5854    9.5725 Cl      1  UNL1       -0.0825
     13 C          63.4290   82.2069   10.5771 C.ar    1  UNL1        0.0111
     14 C          63.1044   81.3194   11.7420 C.ar    1  UNL1        0.0017
     15 C          62.7452   81.9229   13.0674 C.ar    1  UNL1        0.0111
     16 C          62.7104   83.4140   13.2278 C.ar    1  UNL1        0.0545
     17 CL         62.3511   84.0175   14.5532 Cl      1  UNL1       -0.0825
     18 S          62.8960   90.2654   12.7046 S.3     1  UNL1       -0.0806
     19 C          64.1066   91.0844   12.3675 C.ar    1  UNL1        0.0402
     20 C          65.1619   91.3256   13.4059 C.ar    1  UNL1        0.0073
     21 C          66.3725   92.1446   13.0688 C.ar    1  UNL1        0.0006
     22 C          66.5278   92.7224   11.6933 C.ar    1  UNL1        0.0009
     23 C          65.4726   92.4811   10.6549 C.ar    1  UNL1        0.0119
     24 C          64.2620   91.6622   10.9920 C.ar    1  UNL1        0.0636
     25 CL         63.2067   91.4209    9.9536 Cl      1  UNL1       -0.0817
@<TRIPOS>BOND
     1     1     2    2
     2     2     3    1
     3     3     4    1
     4     4    10    1
     5    10    11   ar
     6    11    12    1
     7    11    13   ar
     8    13    14   ar
     9    14    15   ar
    10    15    16   ar
    11    16    17    1
    12     4     5    1
    13     5     6    1
    14     6     7    1
    15     6     8    2
    16     8    18    1
    17    18    19    1
    18    19    20   ar
    19    20    21   ar
    20    21    22   ar
    21    22    23   ar
    22    23    24   ar
    23    24    25    1
    24     8     2    1
    25    24    19   ar
    26    16    10   ar
    27     7     9    1
@<TRIPOS>MOLECULE
*****
 25 27 0 0 0
SMALL
GASTEIGER

@<TRIPOS>ATOM
      1 O          64.5118   88.5855   14.6054 O.2     1  UNL1       -0.2907
      2 C          63.7407   87.9324   13.4968 C.2     1  UNL1        0.1819
      3 C          63.7772   86.4417   13.3347 C.3     1  UNL1        0.0746
      4 C          63.0061   85.7887   12.2261 C.3     1  UNL1        0.0392
      5 C          62.1985   86.6264   11.2796 C.3     1  UNL1        0.0691
      6 C          62.1620   88.1171   11.4416 C.2     1  UNL1        0.1201
      7 O          61.3544   88.9549   10.4951 O.2     1  UNL1       -0.5092
      8 C          62.9331   88.7701   12.5502 C.2     1  UNL1        0.0936
      9 H          60.8727   88.5470    9.8026 H       1  UNL1        0.2917
     10 C          63.0427   84.2978   12.0641 C.ar    1  UNL1       -0.0005
     11 C          62.7290   83.4087   13.2307 C.ar    1  UNL1        0.0545
     12 CL         62.3788   84.0104   14.5594 Cl      1  UNL1       -0.0825
     13 C          62.7656   81.9180   13.0687 C.ar    1  UNL1        0.0111
     14 C          63.1158   81.3163   11.7400 C.ar    1  UNL1        0.0017
     15 C          63.4295   82.2054   10.5734 C.ar    1  UNL1        0.0111
     16 C          63.3929   83.6962   10.7354 C.ar    1  UNL1        0.0545
     17 CL         63.7065   84.5853    9.5688 Cl      1  UNL1       -0.0825
     18 S          62.8965   90.2610   12.7123 S.3     1  UNL1       -0.0806
     19 C          64.1028   91.0827   12.3664 C.ar    1  UNL1        0.0402
     20 C          65.1586   91.3374   13.4011 C.ar    1  UNL1        0.0073
     21 C          66.3649   92.1592   13.0553 C.ar    1  UNL1        0.0006
     22 C          66.5153   92.7263   11.6748 C.ar    1  UNL1        0.0009
     23 C          65.4595   92.4717   10.6402 C.ar    1  UNL1        0.0119
     24 C          64.2533   91.6499   10.9860 C.ar    1  UNL1        0.0636
     25 CL         63.1975   91.3953    9.9513 Cl      1  UNL1       -0.0817
@<TRIPOS>BOND
     1     1     2    2
     2     2     3    1
     3     3     4    1
     4     4    10    1
     5    10    11   ar
     6    11    12    1
     7    11    13   ar
     8    13    14   ar
     9    14    15   ar
    10    15    16   ar
    11    16    17    1
    12     4     5    1
    13     5     6    1
    14     6     7    1
    15     6     8    2
    16     8    18    1
    17    18    19    1
    18    19    20   ar
    19    20    21   ar
    20    21    22   ar
    21    22    23   ar
    22    23    24   ar
    23    24    25    1
    24     8     2    1
    25    24    19   ar
    26    16    10   ar
    27     7     9    1
@<TRIPOS>MOLECULE
*****
 25 27 0 0 0
SMALL
GASTEIGER

@<TRIPOS>ATOM
      1 O          61.2801   88.9223   10.5024 O.2     1  UNL1       -0.2907
      2 C          62.1048   88.0884   11.4375 C.2     1  UNL1        0.1819
      3 C          62.1491   86.5982   11.2725 C.3     1  UNL1        0.0746
      4 C          62.9738   85.7643   12.2076 C.3     1  UNL1        0.0392
      5 C          63.7542   86.4205   13.3077 C.3     1  UNL1        0.0691
      6 C          63.7098   87.9108   13.4727 C.2     1  UNL1        0.1201
      7 O          64.4902   88.5671   14.5729 O.2     1  UNL1       -0.5092
      8 C          62.8851   88.7447   12.5376 C.2     1  UNL1        0.0936
      9 H          65.0054   88.0462   15.1571 H       1  UNL1        0.2917
     10 C          63.0181   84.2740   12.0426 C.ar    1  UNL1       -0.0005
     11 C          62.7037   83.3809   13.2060 C.ar    1  UNL1        0.0545
     12 CL         62.3449   83.9781   14.5344 Cl      1  UNL1       -0.0825
     13 C          62.7480   81.8907   13.0410 C.ar    1  UNL1        0.0111
     14 C          63.1068   81.2935   11.7125 C.ar    1  UNL1        0.0017
     15 C          63.4212   82.1866   10.5491 C.ar    1  UNL1        0.0111
     16 C          63.3769   83.6769   10.7142 C.ar    1  UNL1        0.0545
     17 CL         63.6914   84.5700    9.5508 Cl      1  UNL1       -0.0825
     18 S          62.8408   90.2350   12.7027 S.3     1  UNL1       -0.0806
     19 C          64.0431   91.0636   12.3595 C.ar    1  UNL1        0.0402
     20 C          65.0920   91.3297   13.3983 C.ar    1  UNL1        0.0073
     21 C          66.2943   92.1584   13.0551 C.ar    1  UNL1        0.0006
     22 C          66.4477   92.7209   11.6730 C.ar    1  UNL1        0.0009
     23 C          65.3989   92.4548   10.6343 C.ar    1  UNL1        0.0119
     24 C          64.1966   91.6262   10.9775 C.ar    1  UNL1        0.0636
     25 CL         63.1477   91.3601    9.9386 Cl      1  UNL1       -0.0817
@<TRIPOS>BOND
     1     1     2    2
     2     2     3    1
     3     3     4    1
     4     4    10    1
     5    10    11   ar
     6    11    12    1
     7    11    13   ar
     8    13    14   ar
     9    14    15   ar
    10    15    16   ar
    11    16    17    1
    12     4     5    1
    13     5     6    1
    14     6     7    1
    15     6     8    2
    16     8    18    1
    17    18    19    1
    18    19    20   ar
    19    20    21   ar
    20    21    22   ar
    21    22    23   ar
    22    23    24   ar
    23    24    25    1
    24     8     2    1
    25    24    19   ar
    26    16    10   ar
    27     7     9    1
@<TRIPOS>MOLECULE
*****
 25 27 0 0 0
SMALL
GASTEIGER

@<TRIPOS>ATOM
      1 O          63.0869   91.3298   10.9141 O.2     1  UNL1       -0.2907
      2 C          63.8323   91.0932   12.1941 C.2     1  UNL1        0.1819
      3 C          63.4659   89.9336   13.0721 C.3     1  UNL1        0.0746
      4 C          64.2114   89.6970   14.3521 C.3     1  UNL1        0.0392
      5 C          65.3232   90.6201   14.7540 C.3     1  UNL1        0.0691
      6 C          65.6897   91.7797   13.8760 C.2     1  UNL1        0.1201
      7 O          66.8016   92.7028   14.2780 O.2     1  UNL1       -0.5092
      8 C          64.9442   92.0163   12.5960 C.2     1  UNL1        0.0936
      9 H          67.2673   92.5551   15.0775 H       1  UNL1        0.2917
     10 C          63.8449   88.5373   15.2301 C.ar    1  UNL1       -0.0005
     11 C          64.0019   87.1342   14.7236 C.ar    1  UNL1        0.0545
     12 CL         64.5254   86.8907   13.3391 Cl      1  UNL1       -0.0825
     13 C          63.6354   85.9745   15.6015 C.ar    1  UNL1        0.0111
     14 C          63.1119   86.2179   16.9860 C.ar    1  UNL1        0.0017
     15 C          62.9549   87.6211   17.4925 C.ar    1  UNL1        0.0111
     16 C          63.3214   88.7808   16.6145 C.ar    1  UNL1        0.0545
     17 CL         63.1643   90.1839   17.1210 Cl      1  UNL1       -0.0825
     18 S          65.3107   93.1760   11.7180 S.3     1  UNL1       -0.0806
     19 C          66.4733   93.0659   10.7766 C.ar    1  UNL1        0.0402
     20 C          67.3499   91.8490   10.8065 C.ar    1  UNL1        0.0073
     21 C          68.5125   91.7390    9.8651 C.ar    1  UNL1        0.0006
     22 C          68.7985   92.8457    8.8938 C.ar    1  UNL1        0.0009
     23 C          67.9218   94.0625    8.8639 C.ar    1  UNL1        0.0119
     24 C          66.7592   94.1726    9.8053 C.ar    1  UNL1        0.0636
     25 CL         65.8826   95.3895    9.7755 Cl      1  UNL1       -0.0817
@<TRIPOS>BOND
     1     1     2    2
     2     2     3    1
     3     3     4    1
     4     4    10    1
     5    10    11   ar
     6    11    12    1
     7    11    13   ar
     8    13    14   ar
     9    14    15   ar
    10    15    16   ar
    11    16    17    1
    12     4     5    1
    13     5     6    1
    14     6     7    1
    15     6     8    2
    16     8    18    1
    17    18    19    1
    18    19    20   ar
    19    20    21   ar
    20    21    22   ar
    21    22    23   ar
    22    23    24   ar
    23    24    25    1
    24     8     2    1
    25    24    19   ar
    26    16    10   ar
    27     7     9    1
@<TRIPOS>MOLECULE
*****
 25 27 0 0 0
SMALL
GASTEIGER

@<TRIPOS>ATOM
      1 O          61.4424   89.3446    9.9686 O.2     1  UNL1       -0.2907
      2 C          62.3690   89.2203   11.1417 C.2     1  UNL1        0.1819
      3 C          63.1714   90.4048   11.5924 C.3     1  UNL1        0.0746
      4 C          64.0980   90.2805   12.7654 C.3     1  UNL1        0.0392
      5 C          64.2222   88.9718   13.4877 C.3     1  UNL1        0.0691
      6 C          63.4198   87.7873   13.0370 C.2     1  UNL1        0.1201
      7 O          63.5440   86.4785   13.7593 O.2     1  UNL1       -0.5092
      8 C          62.4932   87.9116   11.8640 C.2     1  UNL1        0.0936
      9 H          64.1228   86.4008   14.4921 H       1  UNL1        0.2917
     10 C          64.9004   91.4650   13.2162 C.ar    1  UNL1       -0.0005
     11 C          65.1050   91.7191   14.6803 C.ar    1  UNL1        0.0545
     12 CL         64.5072   90.7885   15.6936 Cl      1  UNL1       -0.0825
     13 C          65.9074   92.9035   15.1310 C.ar    1  UNL1        0.0111
     14 C          66.5052   93.8340   14.1176 C.ar    1  UNL1        0.0017
     15 C          66.3005   93.5800   12.6535 C.ar    1  UNL1        0.0111
     16 C          65.4981   92.3955   12.2028 C.ar    1  UNL1        0.0545
     17 CL         65.2935   92.1415   10.7387 Cl      1  UNL1       -0.0825
     18 S          61.6908   86.7271   11.4132 S.3     1  UNL1       -0.0806
     19 C          62.3866   85.4702   10.9817 C.ar    1  UNL1        0.0402
     20 C          62.6273   84.3687   11.9710 C.ar    1  UNL1        0.0073
     21 C          63.3231   83.1118   11.5394 C.ar    1  UNL1        0.0006
     22 C          63.7781   82.9565   10.1185 C.ar    1  UNL1        0.0009
     23 C          63.5374   84.0580    9.1293 C.ar    1  UNL1        0.0119
     24 C          62.8416   85.3149    9.5608 C.ar    1  UNL1        0.0636
     25 CL         62.6008   86.4164    8.5715 Cl      1  UNL1       -0.0817
@<TRIPOS>BOND
     1     1     2    2
     2     2     3    1
     3     3     4    1
     4     4    10    1
     5    10    11   ar
     6    11    12    1
     7    11    13   ar
     8    13    14   ar
     9    14    15   ar
    10    15    16   ar
    11    16    17    1
    12     4     5    1
    13     5     6    1
    14     6     7    1
    15     6     8    2
    16     8    18    1
    17    18    19    1
    18    19    20   ar
    19    20    21   ar
    20    21    22   ar
    21    22    23   ar
    22    23    24   ar
    23    24    25    1
    24     8     2    1
    25    24    19   ar
    26    16    10   ar
    27     7     9    1
@<TRIPOS>MOLECULE
*****
 25 27 0 0 0
SMALL
GASTEIGER

@<TRIPOS>ATOM
      1 O          64.8833   87.9247   14.7278 O.2     1  UNL1       -0.2907
      2 C          64.0315   87.2557   13.6901 C.2     1  UNL1        0.1819
      3 C          63.9031   85.7613   13.6748 C.3     1  UNL1        0.0746
      4 C          63.0512   85.0923   12.6371 C.3     1  UNL1        0.0392
      5 C          62.3279   85.9177   11.6147 C.3     1  UNL1        0.0691
      6 C          62.4563   87.4121   11.6300 C.2     1  UNL1        0.1201
      7 O          61.7330   88.2376   10.6075 O.2     1  UNL1       -0.5092
      8 C          63.3082   88.0811   12.6677 C.2     1  UNL1        0.0936
      9 H          61.2009   87.8197    9.9592 H       1  UNL1        0.2917
     10 C          62.9228   83.5979   12.6219 C.ar    1  UNL1       -0.0005
     11 C          62.4086   82.8769   13.8326 C.ar    1  UNL1        0.0545
     12 CL         62.0228   83.6505   15.0586 Cl      1  UNL1       -0.0825
     13 C          62.2801   81.3826   13.8174 C.ar    1  UNL1        0.0111
     14 C          62.6659   80.6090   12.5914 C.ar    1  UNL1        0.0017
     15 C          63.1801   81.3300   11.3807 C.ar    1  UNL1        0.0111
     16 C          63.3085   82.8244   11.3959 C.ar    1  UNL1        0.0545
     17 CL         63.8227   83.5454   10.1852 Cl      1  UNL1       -0.0825
     18 S          63.4366   89.5756   12.6829 S.3     1  UNL1       -0.0806
     19 C          63.8060   90.2836   13.9527 C.ar    1  UNL1        0.0402
     20 C          63.0545   89.9948   15.2184 C.ar    1  UNL1        0.0073
     21 C          63.4238   90.7029   16.4881 C.ar    1  UNL1        0.0006
     22 C          64.5447   91.6998   16.4921 C.ar    1  UNL1        0.0009
     23 C          65.2961   91.9886   15.2265 C.ar    1  UNL1        0.0119
     24 C          64.9268   91.2805   13.9567 C.ar    1  UNL1        0.0636
     25 CL         65.6783   91.5693   12.6910 Cl      1  UNL1       -0.0817
@<TRIPOS>BOND
     1     1     2    2
     2     2     3    1
     3     3     4    1
     4     4    10    1
     5    10    11   ar
     6    11    12    1
     7    11    13   ar
     8    13    14   ar
     9    14    15   ar
    10    15    16   ar
    11    16    17    1
    12     4     5    1
    13     5     6    1
    14     6     7    1
    15     6     8    2
    16     8    18    1
    17    18    19    1
    18    19    20   ar
    19    20    21   ar
    20    21    22   ar
    21    22    23   ar
    22    23    24   ar
    23    24    25    1
    24     8     2    1
    25    24    19   ar
    26    16    10   ar
    27     7     9    1
