@<TRIPOS>MOLECULE
*****
 25 27 0 0 0
SMALL
GASTEIGER

@<TRIPOS>ATOM
      1 C          63.1743   90.5270   13.0193 C.ar    1  UNL1        0.0636
      2 C          63.6781   91.2420   11.8007 C.ar    1  UNL1        0.0278
      3 C          64.9860   91.9747   11.8483 C.ar    1  UNL1        0.0694
      4 CL         65.4899   92.6898   10.6297 Cl      1  UNL1       -0.0813
      5 C          65.7902   91.9924   13.1143 C.ar    1  UNL1        0.0680
      6 CL         67.0983   92.7251   13.1618 Cl      1  UNL1       -0.0814
      7 C          65.2865   91.2774   14.3329 C.ar    1  UNL1        0.0112
      8 C          63.9785   90.5447   14.2854 C.ar    1  UNL1        0.0177
      9 N          61.8663   89.7942   12.9718 N.pl3   1  UNL1       -0.2148
     10 H          61.3412   89.6705   13.7954 H       1  UNL1        0.1737
     11 O          60.4227   90.4160   11.5473 O.2     1  UNL1       -0.1494
     12 S          61.3583   89.2500   11.6696 S.O2    1  UNL1        0.0793
     13 O          62.2940   88.0840   11.7919 O.2     1  UNL1       -0.1494
     14 C          60.8504   88.7057   10.3674 C.ar    1  UNL1        0.1554
     15 C          60.1743   89.4949    9.2857 C.ar    1  UNL1        0.0283
     16 C          59.8354   88.5537    8.1680 C.ar    1  UNL1        0.0199
     17 C          60.3021   87.1828    8.5588 C.ar    1  UNL1        0.0882
     18 CL         60.1656   85.9367    7.7351 Cl      1  UNL1       -0.0751
     19 S          60.9294   87.2768    9.9181 S.2     1  UNL1       -0.0555
     20 C          63.4747   89.8296   15.5040 C.3     1  UNL1        0.1569
     21 N          63.6328   88.3424   15.6199 N.ar    1  UNL1       -0.2256
     22 C          64.4408   87.4679   14.7076 C.ar    1  UNL1        0.1196
     23 C          64.3180   86.0537   15.1923 C.ar    1  UNL1        0.1441
     24 N          63.4341   86.0542   16.4042 N.ar    1  UNL1       -0.1271
     25 N          63.0106   87.4687   16.6684 N.ar    1  UNL1       -0.0634
@<TRIPOS>BOND
     1    11    12    2
     2    12    13    2
     3    12     9    1
     4     9     1    1
     5     1     2   ar
     6     2     3   ar
     7     3     4    1
     8     3     5   ar
     9     5     6    1
    10     5     7   ar
    11     7     8   ar
    12     8    20    1
    13    20    21    1
    14    21    22   ar
    15    22    23   ar
    16    23    24   ar
    17    24    25   ar
    18    12    14    1
    19    14    15   ar
    20    15    16   ar
    21    16    17   ar
    22    17    18    1
    23    17    19   ar
    24     8     1   ar
    25    25    21   ar
    26    19    14   ar
    27     9    10    1
@<TRIPOS>MOLECULE
*****
 25 27 0 0 0
SMALL
GASTEIGER

@<TRIPOS>ATOM
      1 C          63.3297   86.7708   13.0283 C.ar    1  UNL1        0.0636
      2 C          62.5749   86.4404   11.7750 C.ar    1  UNL1        0.0278
      3 C          62.1769   87.5342   10.8288 C.ar    1  UNL1        0.0694
      4 CL         61.4220   87.2039    9.5754 Cl      1  UNL1       -0.0813
      5 C          62.5338   88.9584   11.1361 C.ar    1  UNL1        0.0680
      6 CL         62.1358   90.0522   10.1899 Cl      1  UNL1       -0.0814
      7 C          63.2886   89.2888   12.3895 C.ar    1  UNL1        0.0112
      8 C          63.6866   88.1950   13.3356 C.ar    1  UNL1        0.0177
      9 N          63.7278   85.6770   13.9745 N.pl3   1  UNL1       -0.2148
     10 H          64.2640   85.8876   14.7729 H       1  UNL1        0.1737
     11 O          62.0473   84.4869   14.4841 O.2     1  UNL1       -0.1494
     12 S          63.3088   84.2623   13.7043 S.O2    1  UNL1        0.0793
     13 O          64.5703   84.0376   12.9245 O.2     1  UNL1       -0.1494
     14 C          62.8898   82.8475   13.4341 C.ar    1  UNL1        0.1554
     15 C          62.0281   81.9985   14.3210 C.ar    1  UNL1        0.0283
     16 C          61.8647   80.6597   13.6645 C.ar    1  UNL1        0.0199
     17 C          62.6254   80.6813   12.3719 C.ar    1  UNL1        0.0882
     18 CL         62.7336   79.5495   11.3935 Cl      1  UNL1       -0.0751
     19 S          63.2590   82.0335   12.2295 S.2     1  UNL1       -0.0555
     20 C          64.4415   88.5253   14.5891 C.3     1  UNL1        0.1569
     21 N          64.3666   89.9073   15.1675 N.ar    1  UNL1       -0.2256
     22 C          65.3386   91.0219   14.9167 C.ar    1  UNL1        0.1196
     23 C          64.8793   92.2208   15.6924 C.ar    1  UNL1        0.1441
     24 N          63.6235   91.8471   16.4226 N.ar    1  UNL1       -0.1271
     25 N          63.3067   90.4173   16.0982 N.ar    1  UNL1       -0.0634
@<TRIPOS>BOND
     1    11    12    2
     2    12    13    2
     3    12     9    1
     4     9     1    1
     5     1     2   ar
     6     2     3   ar
     7     3     4    1
     8     3     5   ar
     9     5     6    1
    10     5     7   ar
    11     7     8   ar
    12     8    20    1
    13    20    21    1
    14    21    22   ar
    15    22    23   ar
    16    23    24   ar
    17    24    25   ar
    18    12    14    1
    19    14    15   ar
    20    15    16   ar
    21    16    17   ar
    22    17    18    1
    23    17    19   ar
    24     8     1   ar
    25    25    21   ar
    26    19    14   ar
    27     9    10    1
@<TRIPOS>MOLECULE
*****
 25 27 0 0 0
SMALL
GASTEIGER

@<TRIPOS>ATOM
      1 C          61.1318   88.2117   10.8060 C.ar    1  UNL1        0.0636
      2 C          60.1926   88.6145    9.7080 C.ar    1  UNL1        0.0278
      3 C          59.9823   87.7088    8.5310 C.ar    1  UNL1        0.0694
      4 CL         59.0431   88.1116    7.4330 Cl      1  UNL1       -0.0813
      5 C          60.7111   86.4001    8.4520 C.ar    1  UNL1        0.0680
      6 CL         60.5008   85.4943    7.2750 Cl      1  UNL1       -0.0814
      7 C          61.6503   85.9972    9.5500 C.ar    1  UNL1        0.0112
      8 C          61.8607   86.9030   10.7270 C.ar    1  UNL1        0.0177
      9 N          61.3422   89.1174   11.9830 N.pl3   1  UNL1       -0.2148
     10 H          60.7145   89.0934   12.7411 H       1  UNL1        0.1737
     11 O          62.8086   89.6559   13.4182 O.2     1  UNL1       -0.1494
     12 S          62.5090   90.0598   12.0050 S.O2    1  UNL1        0.0793
     13 O          62.2094   90.4638   10.5919 O.2     1  UNL1       -0.1494
     14 C          63.6758   91.0023   12.0270 C.ar    1  UNL1        0.1554
     15 C          64.2132   91.7676   10.8543 C.ar    1  UNL1        0.0283
     16 C          65.3796   92.5832   11.3281 C.ar    1  UNL1        0.0199
     17 C          65.5630   92.3218   12.7937 C.ar    1  UNL1        0.0882
     18 CL         66.6148   92.9306   13.6730 Cl      1  UNL1       -0.0751
     19 S          64.5100   91.3448   13.2257 S.2     1  UNL1       -0.0555
     20 C          62.7999   86.5002   11.8250 C.3     1  UNL1        0.1569
     21 N          62.7148   85.1249   12.4178 N.ar    1  UNL1       -0.2256
     22 C          62.9093   83.8333   11.6803 C.ar    1  UNL1        0.1196
     23 C          62.7350   82.7099   12.6588 C.ar    1  UNL1        0.1441
     24 N          62.4326   83.3072   14.0012 N.ar    1  UNL1       -0.1271
     25 N          62.4202   84.7997   13.8522 N.ar    1  UNL1       -0.0634
@<TRIPOS>BOND
     1    11    12    2
     2    12    13    2
     3    12     9    1
     4     9     1    1
     5     1     2   ar
     6     2     3   ar
     7     3     4    1
     8     3     5   ar
     9     5     6    1
    10     5     7   ar
    11     7     8   ar
    12     8    20    1
    13    20    21    1
    14    21    22   ar
    15    22    23   ar
    16    23    24   ar
    17    24    25   ar
    18    12    14    1
    19    14    15   ar
    20    15    16   ar
    21    16    17   ar
    22    17    18    1
    23    17    19   ar
    24     8     1   ar
    25    25    21   ar
    26    19    14   ar
    27     9    10    1
@<TRIPOS>MOLECULE
*****
 25 27 0 0 0
SMALL
GASTEIGER

@<TRIPOS>ATOM
      1 C          63.0390   85.2621   12.3951 C.ar    1  UNL1        0.0636
      2 C          62.4995   84.0837   11.6399 C.ar    1  UNL1        0.0278
      3 C          62.8578   82.6912   12.0672 C.ar    1  UNL1        0.0694
      4 CL         62.3184   81.5127   11.3120 Cl      1  UNL1       -0.0813
      5 C          63.7556   82.4771   13.2496 C.ar    1  UNL1        0.0680
      6 CL         64.1139   81.0846   13.6769 Cl      1  UNL1       -0.0814
      7 C          64.2951   83.6555   14.0048 C.ar    1  UNL1        0.0112
      8 C          63.9368   85.0480   13.5775 C.ar    1  UNL1        0.0177
      9 N          62.6807   86.6546   11.9678 N.pl3   1  UNL1       -0.2148
     10 H          63.0174   87.4275   12.4762 H       1  UNL1        0.1737
     11 O          60.6737   87.2692   11.6606 O.2     1  UNL1       -0.1494
     12 S          61.8093   86.8695   10.7659 S.O2    1  UNL1        0.0793
     13 O          62.9450   86.4698    9.8711 O.2     1  UNL1       -0.1494
     14 C          60.9380   87.0844    9.5640 C.ar    1  UNL1        0.1554
     15 C          60.3554   86.0103    8.6939 C.ar    1  UNL1        0.0283
     16 C          59.5536   86.6732    7.6133 C.ar    1  UNL1        0.0199
     17 C          59.6407   88.1570    7.8155 C.ar    1  UNL1        0.0882
     18 CL         58.9869   89.2030    6.9620 Cl      1  UNL1       -0.0751
     19 S          60.4963   88.4111    9.0210 S.2     1  UNL1       -0.0555
     20 C          64.4762   86.2265   14.3327 C.3     1  UNL1        0.1569
     21 N          63.7851   86.7002   15.5769 N.ar    1  UNL1       -0.2256
     22 C          63.2965   85.8326   16.6987 C.ar    1  UNL1        0.1196
     23 C          62.6707   86.7209   17.7329 C.ar    1  UNL1        0.1441
     24 N          62.7726   88.1374   17.2502 N.ar    1  UNL1       -0.1271
     25 N          63.4613   88.1246   15.9177 N.ar    1  UNL1       -0.0634
@<TRIPOS>BOND
     1    11    12    2
     2    12    13    2
     3    12     9    1
     4     9     1    1
     5     1     2   ar
     6     2     3   ar
     7     3     4    1
     8     3     5   ar
     9     5     6    1
    10     5     7   ar
    11     7     8   ar
    12     8    20    1
    13    20    21    1
    14    21    22   ar
    15    22    23   ar
    16    23    24   ar
    17    24    25   ar
    18    12    14    1
    19    14    15   ar
    20    15    16   ar
    21    16    17   ar
    22    17    18    1
    23    17    19   ar
    24     8     1   ar
    25    25    21   ar
    26    19    14   ar
    27     9    10    1
@<TRIPOS>MOLECULE
*****
 25 27 0 0 0
SMALL
GASTEIGER

@<TRIPOS>ATOM
      1 C          62.0377   87.2279   11.1494 C.ar    1  UNL1        0.0636
      2 C          60.9858   86.5530   10.3201 C.ar    1  UNL1        0.0278
      3 C          60.2527   87.3262    9.2643 C.ar    1  UNL1        0.0694
      4 CL         59.2007   86.6512    8.4349 Cl      1  UNL1       -0.0813
      5 C          60.5716   88.7743    9.0378 C.ar    1  UNL1        0.0680
      6 CL         59.8385   89.5475    7.9819 Cl      1  UNL1       -0.0814
      7 C          61.6236   89.4492    9.8671 C.ar    1  UNL1        0.0112
      8 C          62.3566   88.6760   10.9230 C.ar    1  UNL1        0.0177
      9 N          62.7709   86.4547   12.2053 N.pl3   1  UNL1       -0.2148
     10 H          63.2326   86.9310   12.9328 H       1  UNL1        0.1737
     11 O          62.3852   84.8973   13.5929 O.2     1  UNL1       -0.1494
     12 S          62.8004   84.9560   12.1528 S.O2    1  UNL1        0.0793
     13 O          63.2156   85.0146   10.7126 O.2     1  UNL1       -0.1494
     14 C          62.8300   83.4572   12.1002 C.ar    1  UNL1        0.1554
     15 C          63.2364   82.6241   10.9209 C.ar    1  UNL1        0.0283
     16 C          63.1159   81.1804   11.3095 C.ar    1  UNL1        0.0199
     17 C          62.6349   81.1211   12.7291 C.ar    1  UNL1        0.0882
     18 CL         62.3761   79.8738   13.5210 Cl      1  UNL1       -0.0751
     19 S          62.4582   82.5282   13.2177 S.2     1  UNL1       -0.0555
     20 C          63.4086   89.3510   11.7523 C.3     1  UNL1        0.1569
     21 N          63.2853   89.3731   13.2471 N.ar    1  UNL1       -0.2256
     22 C          64.2922   88.8401   14.2229 C.ar    1  UNL1        0.1196
     23 C          63.7627   89.0698   15.6074 C.ar    1  UNL1        0.1441
     24 N          62.4285   89.7448   15.4873 N.ar    1  UNL1       -0.1271
     25 N          62.1336   89.9323   14.0286 N.ar    1  UNL1       -0.0634
@<TRIPOS>BOND
     1    11    12    2
     2    12    13    2
     3    12     9    1
     4     9     1    1
     5     1     2   ar
     6     2     3   ar
     7     3     4    1
     8     3     5   ar
     9     5     6    1
    10     5     7   ar
    11     7     8   ar
    12     8    20    1
    13    20    21    1
    14    21    22   ar
    15    22    23   ar
    16    23    24   ar
    17    24    25   ar
    18    12    14    1
    19    14    15   ar
    20    15    16   ar
    21    16    17   ar
    22    17    18    1
    23    17    19   ar
    24     8     1   ar
    25    25    21   ar
    26    19    14   ar
    27     9    10    1
@<TRIPOS>MOLECULE
*****
 25 27 0 0 0
SMALL
GASTEIGER

@<TRIPOS>ATOM
      1 C          61.7755   87.0689   10.8091 C.ar    1  UNL1        0.0636
      2 C          61.2422   86.2171    9.6955 C.ar    1  UNL1        0.0278
      3 C          60.4122   86.8355    8.6099 C.ar    1  UNL1        0.0694
      4 CL         59.8789   85.9837    7.4962 Cl      1  UNL1       -0.0813
      5 C          60.1155   88.3056    8.6378 C.ar    1  UNL1        0.0680
      6 CL         59.2854   88.9239    7.5521 Cl      1  UNL1       -0.0814
      7 C          60.6488   89.1573    9.7514 C.ar    1  UNL1        0.0112
      8 C          61.4788   88.5390   10.8370 C.ar    1  UNL1        0.0177
      9 N          62.6056   86.4505   11.8948 N.pl3   1  UNL1       -0.2148
     10 H          63.0889   87.0244   12.5323 H       1  UNL1        0.1737
     11 O          63.2783   84.8883   10.6273 O.2     1  UNL1       -0.1494
     12 S          62.6993   84.9578   12.0093 S.O2    1  UNL1        0.0793
     13 O          62.1203   85.0274   13.3913 O.2     1  UNL1       -0.1494
     14 C          62.7930   83.4652   12.1237 C.ar    1  UNL1        0.1554
     15 C          63.1769   82.5190   11.0249 C.ar    1  UNL1        0.0283
     16 C          63.1404   81.1256   11.5791 C.ar    1  UNL1        0.0199
     17 C          62.7339   81.2106   13.0205 C.ar    1  UNL1        0.0882
     18 CL         62.5708   80.0530   13.9603 Cl      1  UNL1       -0.0751
     19 S          62.5192   82.6565   13.3570 S.2     1  UNL1       -0.0555
     20 C          62.0121   89.3907   11.9507 C.3     1  UNL1        0.1569
     21 N          63.0490   90.4362   11.6647 N.ar    1  UNL1       -0.2256
     22 C          63.9944   91.0365   12.6626 C.ar    1  UNL1        0.1196
     23 C          64.8523   92.0363   11.9452 C.ar    1  UNL1        0.1441
     24 N          64.4370   92.0539   10.5040 N.ar    1  UNL1       -0.1271
     25 N          63.3225   91.0650   10.3306 N.ar    1  UNL1       -0.0634
@<TRIPOS>BOND
     1    11    12    2
     2    12    13    2
     3    12     9    1
     4     9     1    1
     5     1     2   ar
     6     2     3   ar
     7     3     4    1
     8     3     5   ar
     9     5     6    1
    10     5     7   ar
    11     7     8   ar
    12     8    20    1
    13    20    21    1
    14    21    22   ar
    15    22    23   ar
    16    23    24   ar
    17    24    25   ar
    18    12    14    1
    19    14    15   ar
    20    15    16   ar
    21    16    17   ar
    22    17    18    1
    23    17    19   ar
    24     8     1   ar
    25    25    21   ar
    26    19    14   ar
    27     9    10    1
@<TRIPOS>MOLECULE
*****
 25 27 0 0 0
SMALL
GASTEIGER

@<TRIPOS>ATOM
      1 C          62.2551   86.0398   11.3629 C.ar    1  UNL1        0.0636
      2 C          62.5119   85.0446   12.4554 C.ar    1  UNL1        0.0278
      3 C          63.1395   83.7212   12.1321 C.ar    1  UNL1        0.0694
      4 CL         63.3964   82.7260   13.2246 Cl      1  UNL1       -0.0813
      5 C          63.5104   83.3930   10.7162 C.ar    1  UNL1        0.0680
      6 CL         64.1380   82.0695   10.3928 Cl      1  UNL1       -0.0814
      7 C          63.2535   84.3881    9.6237 C.ar    1  UNL1        0.0112
      8 C          62.6259   85.7115    9.9470 C.ar    1  UNL1        0.0177
      9 N          61.6275   87.3633   11.6863 N.pl3   1  UNL1       -0.2148
     10 H          60.6484   87.4633   11.6602 H       1  UNL1        0.1737
     11 O          63.4165   87.6203   12.7968 O.2     1  UNL1       -0.1494
     12 S          62.4916   88.5344   12.0492 S.O2    1  UNL1        0.0793
     13 O          61.5667   89.4486   11.3017 O.2     1  UNL1       -0.1494
     14 C          63.3557   89.7056   12.4122 C.ar    1  UNL1        0.1554
     15 C          63.6303   90.9002   11.5477 C.ar    1  UNL1        0.0283
     16 C          64.5413   91.8207   12.3046 C.ar    1  UNL1        0.0199
     17 C          64.8297   91.1949   13.6370 C.ar    1  UNL1        0.0882
     18 CL         65.6983   91.7745   14.7138 Cl      1  UNL1       -0.0751
     19 S          64.0970   89.8877   13.7035 S.2     1  UNL1       -0.0555
     20 C          62.3691   86.7068    8.8545 C.3     1  UNL1        0.1569
     21 N          60.9698   86.9420    8.3680 N.ar    1  UNL1       -0.2256
     22 C          60.2359   88.2500    8.3927 C.ar    1  UNL1        0.1196
     23 C          58.8713   88.0269    7.8114 C.ar    1  UNL1        0.1441
     24 N          58.7617   86.5811    7.4274 N.ar    1  UNL1       -0.1271
     25 N          60.0587   85.9106    7.7714 N.ar    1  UNL1       -0.0634
@<TRIPOS>BOND
     1    11    12    2
     2    12    13    2
     3    12     9    1
     4     9     1    1
     5     1     2   ar
     6     2     3   ar
     7     3     4    1
     8     3     5   ar
     9     5     6    1
    10     5     7   ar
    11     7     8   ar
    12     8    20    1
    13    20    21    1
    14    21    22   ar
    15    22    23   ar
    16    23    24   ar
    17    24    25   ar
    18    12    14    1
    19    14    15   ar
    20    15    16   ar
    21    16    17   ar
    22    17    18    1
    23    17    19   ar
    24     8     1   ar
    25    25    21   ar
    26    19    14   ar
    27     9    10    1
@<TRIPOS>MOLECULE
*****
 25 27 0 0 0
SMALL
GASTEIGER

@<TRIPOS>ATOM
      1 C          63.2144   90.2943   11.8853 C.ar    1  UNL1        0.0636
      2 C          62.3295   90.3891   10.6779 C.ar    1  UNL1        0.0278
      3 C          61.6404   89.1637   10.1550 C.ar    1  UNL1        0.0694
      4 CL         60.7555   89.2585    8.9475 Cl      1  UNL1       -0.0813
      5 C          61.8362   87.8435   10.8395 C.ar    1  UNL1        0.0680
      6 CL         61.1471   86.6180   10.3166 Cl      1  UNL1       -0.0814
      7 C          62.7211   87.7486   12.0469 C.ar    1  UNL1        0.0112
      8 C          63.4102   88.9741   12.5698 C.ar    1  UNL1        0.0177
      9 N          63.9035   91.5198   12.4083 N.pl3   1  UNL1       -0.2148
     10 H          63.6526   91.8890   13.2857 H       1  UNL1        0.1737
     11 O          64.0407   92.2543   10.4229 O.2     1  UNL1       -0.1494
     12 S          64.9750   92.1826   11.5943 S.O2    1  UNL1        0.0793
     13 O          65.9092   92.1109   12.7656 O.2     1  UNL1       -0.1494
     14 C          66.0464   92.8455   10.7803 C.ar    1  UNL1        0.1554
     15 C          67.2984   92.1936   10.2727 C.ar    1  UNL1        0.0283
     16 C          68.0798   93.2219    9.5096 C.ar    1  UNL1        0.0199
     17 C          67.3108   94.5092    9.5456 C.ar    1  UNL1        0.0882
     18 CL         67.7255   95.8022    8.9083 Cl      1  UNL1       -0.0751
     19 S          66.0541   94.2766   10.3309 S.2     1  UNL1       -0.0555
     20 C          64.2951   88.8793   13.7773 C.3     1  UNL1        0.1569
     21 N          63.9758   87.8981   14.8661 N.ar    1  UNL1       -0.2256
     22 C          64.3992   86.4597   14.9087 C.ar    1  UNL1        0.1196
     23 C          63.8620   85.8557   16.1723 C.ar    1  UNL1        0.1441
     24 N          63.1066   86.9207   16.9106 N.ar    1  UNL1       -0.1271
     25 N          63.1770   88.1830   16.1033 N.ar    1  UNL1       -0.0634
@<TRIPOS>BOND
     1    11    12    2
     2    12    13    2
     3    12     9    1
     4     9     1    1
     5     1     2   ar
     6     2     3   ar
     7     3     4    1
     8     3     5   ar
     9     5     6    1
    10     5     7   ar
    11     7     8   ar
    12     8    20    1
    13    20    21    1
    14    21    22   ar
    15    22    23   ar
    16    23    24   ar
    17    24    25   ar
    18    12    14    1
    19    14    15   ar
    20    15    16   ar
    21    16    17   ar
    22    17    18    1
    23    17    19   ar
    24     8     1   ar
    25    25    21   ar
    26    19    14   ar
    27     9    10    1
@<TRIPOS>MOLECULE
*****
 25 27 0 0 0
SMALL
GASTEIGER

@<TRIPOS>ATOM
      1 C          63.7929   91.4470   12.7493 C.ar    1  UNL1        0.0636
      2 C          63.5933   91.2381   14.2212 C.ar    1  UNL1        0.0278
      3 C          64.6806   91.6092   15.1856 C.ar    1  UNL1        0.0694
      4 CL         64.4810   91.4004   16.6576 Cl      1  UNL1       -0.0813
      5 C          65.9674   92.1892   14.6781 C.ar    1  UNL1        0.0680
      6 CL         67.0547   92.5603   15.6426 Cl      1  UNL1       -0.0814
      7 C          66.1671   92.3981   13.2062 C.ar    1  UNL1        0.0112
      8 C          65.0798   92.0269   12.2418 C.ar    1  UNL1        0.0177
      9 N          62.7056   91.0758   11.7849 N.pl3   1  UNL1       -0.2148
     10 H          62.1011   91.7691   11.4340 H       1  UNL1        0.1737
     11 O          62.6835   89.2026   12.7800 O.2     1  UNL1       -0.1494
     12 S          62.5394   89.6484   11.3551 S.O2    1  UNL1        0.0793
     13 O          62.3954   90.0942    9.9301 O.2     1  UNL1       -0.1494
     14 C          62.3733   88.2209   10.9253 C.ar    1  UNL1        0.1554
     15 C          61.9251   87.7540    9.5721 C.ar    1  UNL1        0.0283
     16 C          61.9009   86.2542    9.5837 C.ar    1  UNL1        0.0199
     17 C          62.3341   85.7942   10.9441 C.ar    1  UNL1        0.0882
     18 CL         62.4544   84.3690   11.3960 Cl      1  UNL1       -0.0751
     19 S          62.6261   87.0097   11.7732 S.2     1  UNL1       -0.0555
     20 C          65.2794   92.2358   10.7699 C.3     1  UNL1        0.1569
     21 N          66.4160   93.0832   10.2799 N.ar    1  UNL1       -0.2256
     22 C          66.3330   94.5287    9.8879 C.ar    1  UNL1        0.1196
     23 C          67.7009   94.9727    9.4617 C.ar    1  UNL1        0.1441
     24 N          68.6294   93.8016    9.5903 N.ar    1  UNL1       -0.1271
     25 N          67.8353   92.6339   10.0959 N.ar    1  UNL1       -0.0634
@<TRIPOS>BOND
     1    11    12    2
     2    12    13    2
     3    12     9    1
     4     9     1    1
     5     1     2   ar
     6     2     3   ar
     7     3     4    1
     8     3     5   ar
     9     5     6    1
    10     5     7   ar
    11     7     8   ar
    12     8    20    1
    13    20    21    1
    14    21    22   ar
    15    22    23   ar
    16    23    24   ar
    17    24    25   ar
    18    12    14    1
    19    14    15   ar
    20    15    16   ar
    21    16    17   ar
    22    17    18    1
    23    17    19   ar
    24     8     1   ar
    25    25    21   ar
    26    19    14   ar
    27     9    10    1
