@<TRIPOS>MOLECULE
*****
 35 38 0 0 0
SMALL
GASTEIGER

@<TRIPOS>ATOM
      1 N          63.4989   88.3278   15.2026 N.pl3   1  UNL1       -0.2138
      2 H          63.1135   88.5745   16.0743 H       1  UNL1        0.1738
      3 C          63.7436   85.8200   15.8354 C.ar    1  UNL1        0.0591
      4 C          63.8142   84.3781   15.4276 C.ar    1  UNL1        0.0111
      5 C          63.7106   84.0025   13.9790 C.ar    1  UNL1       -0.0234
      6 C          63.5365   85.0686   12.9384 C.ar    1  UNL1       -0.0233
      7 C          63.4659   86.5104   13.3462 C.ar    1  UNL1        0.0126
      8 C          63.5695   86.8861   14.7947 C.ar    1  UNL1        0.0775
      9 C          63.4130   84.9131   11.4516 C.3     1  UNL1        0.0434
     10 C          63.4332   83.6528   10.6382 C.3     1  UNL1        0.0768
     11 N          63.5818   82.2371   11.1109 N.3     1  UNL1       -0.2709
     12 C          63.5627   81.1878   10.0391 C.3     1  UNL1        0.0897
     13 C          63.7470   81.7317   12.5135 C.3     1  UNL1        0.0768
     14 C          63.8043   82.5174   13.7900 C.3     1  UNL1        0.0434
     15 N          63.8472   86.1955   17.2839 N.pl3   1  UNL1       -0.3331
     16 H          64.7195   86.1644   17.7393 H       1  UNL1        0.1468
     17 C          62.7343   87.0491   19.4709 C.3     1  UNL1        0.0212
     18 C          62.6217   86.6185   18.0384 C.3     1  UNL1        0.0692
     19 C          61.2837   86.6109   17.3605 C.3     1  UNL1        0.0212
     20 S          64.0155   89.3937   14.2822 S.O2    1  UNL1        0.0736
     21 O          62.6202   89.6488   13.7944 O.2     1  UNL1       -0.1499
     22 O          65.4109   89.1386   14.7701 O.2     1  UNL1       -0.1499
     23 C          64.5322   90.4596   13.3619 C.ar    1  UNL1        0.1252
     24 C          63.8347   90.7307   12.0619 C.ar    1  UNL1        0.0202
     25 C          64.3514   91.7966   11.1416 C.ar    1  UNL1        0.0014
     26 C          65.5655   92.5914   11.5213 C.ar    1  UNL1        0.0001
     27 C          66.2630   92.3203   12.8213 C.ar    1  UNL1        0.0014
     28 C          65.7463   91.2544   13.7416 C.ar    1  UNL1        0.0202
     29 C          66.0822   93.6573   10.6010 C.ar    1  UNL1        0.0001
     30 C          67.1880   93.3443    9.6371 C.ar    1  UNL1        0.0009
     31 C          67.7048   94.4101    8.7168 C.ar    1  UNL1        0.0114
     32 C          67.1158   95.7890    8.7605 C.ar    1  UNL1        0.0577
     33 CL         67.6325   96.8548    7.8402 Cl      1  UNL1       -0.0822
     34 C          66.0099   96.1019    9.7245 C.ar    1  UNL1        0.0114
     35 C          65.4932   95.0361   10.6447 C.ar    1  UNL1        0.0009
@<TRIPOS>BOND
     1    17    18    1
     2    18    19    1
     3    18    15    1
     4    15     3    1
     5     3     4   ar
     6     4     5   ar
     7     5     6   ar
     8     6     7   ar
     9     7     8   ar
    10     8     1    1
    11     1    20    1
    12    20    21    2
    13    20    22    2
    14    20    23    1
    15    23    24   ar
    16    24    25   ar
    17    25    26   ar
    18    26    29    1
    19    29    30   ar
    20    30    31   ar
    21    31    32   ar
    22    32    33    1
    23    32    34   ar
    24    34    35   ar
    25    26    27   ar
    26    27    28   ar
    27     6     9    1
    28     9    10    1
    29    10    11    1
    30    11    12    1
    31    11    13    1
    32    13    14    1
    33     8     3   ar
    34    28    23   ar
    35    14     5    1
    36    35    29   ar
    37    15    16    1
    38     1     2    1
@<TRIPOS>MOLECULE
*****
 35 38 0 0 0
SMALL
GASTEIGER

@<TRIPOS>ATOM
      1 N          63.8078   88.7775   14.4402 N.pl3   1  UNL1       -0.2138
      2 H          63.7788   88.9680   15.4056 H       1  UNL1        0.1738
      3 C          62.8756   90.3022   12.5544 C.ar    1  UNL1        0.0591
      4 C          63.0682   91.4215   11.5745 C.ar    1  UNL1        0.0111
      5 C          64.3855   92.1352   11.5004 C.ar    1  UNL1       -0.0234
      6 C          65.5101   91.7297   12.4062 C.ar    1  UNL1       -0.0233
      7 C          65.3176   90.6105   13.3861 C.ar    1  UNL1        0.0126
      8 C          64.0004   89.8967   13.4603 C.ar    1  UNL1        0.0775
      9 C          66.8929   92.3042   12.4952 C.3     1  UNL1        0.0434
     10 C          67.4924   93.4262   11.7003 C.3     1  UNL1        0.0768
     11 N          66.8573   94.2506   10.6202 N.3     1  UNL1       -0.2709
     12 C          67.7290   95.3089   10.0117 C.3     1  UNL1        0.0897
     13 C          65.4658   94.1569   10.0681 C.3     1  UNL1        0.0768
     14 C          64.3657   93.2154   10.4598 C.3     1  UNL1        0.0434
     15 N          61.5584   89.5886   12.6285 N.pl3   1  UNL1       -0.3331
     16 H          61.3227   89.0723   13.4329 H       1  UNL1        0.1468
     17 C          60.8333   88.8259   10.2530 C.3     1  UNL1        0.0212
     18 C          60.6002   89.6616   11.4767 C.3     1  UNL1        0.0692
     19 C          59.4088   90.5702   11.5486 C.3     1  UNL1        0.0212
     20 S          63.6594   87.3680   13.9490 S.O2    1  UNL1        0.0736
     21 O          63.7839   86.8644   15.3565 O.2     1  UNL1       -0.1499
     22 O          63.5349   87.8715   12.5415 O.2     1  UNL1       -0.1499
     23 C          63.5110   85.9584   13.4579 C.ar    1  UNL1        0.1252
     24 C          62.7774   85.6832   12.1787 C.ar    1  UNL1        0.0202
     25 C          62.6291   84.2737   11.6877 C.ar    1  UNL1        0.0014
     26 C          63.2142   83.1394   12.4756 C.ar    1  UNL1        0.0001
     27 C          63.9477   83.4145   13.7548 C.ar    1  UNL1        0.0014
     28 C          64.0961   84.8241   14.2459 C.ar    1  UNL1        0.0202
     29 C          63.0658   81.7298   11.9846 C.ar    1  UNL1        0.0001
     30 C          63.2680   81.4167   10.5316 C.ar    1  UNL1        0.0009
     31 C          63.1196   80.0072   10.0404 C.ar    1  UNL1        0.0114
     32 C          62.7691   78.9107   11.0023 C.ar    1  UNL1        0.0577
     33 CL         62.6208   77.5012   10.5111 Cl      1  UNL1       -0.0822
     34 C          62.5670   79.2239   12.4553 C.ar    1  UNL1        0.0114
     35 C          62.7153   80.6334   12.9463 C.ar    1  UNL1        0.0009
@<TRIPOS>BOND
     1    17    18    1
     2    18    19    1
     3    18    15    1
     4    15     3    1
     5     3     4   ar
     6     4     5   ar
     7     5     6   ar
     8     6     7   ar
     9     7     8   ar
    10     8     1    1
    11     1    20    1
    12    20    21    2
    13    20    22    2
    14    20    23    1
    15    23    24   ar
    16    24    25   ar
    17    25    26   ar
    18    26    29    1
    19    29    30   ar
    20    30    31   ar
    21    31    32   ar
    22    32    33    1
    23    32    34   ar
    24    34    35   ar
    25    26    27   ar
    26    27    28   ar
    27     6     9    1
    28     9    10    1
    29    10    11    1
    30    11    12    1
    31    11    13    1
    32    13    14    1
    33     8     3   ar
    34    28    23   ar
    35    14     5    1
    36    35    29   ar
    37    15    16    1
    38     1     2    1
@<TRIPOS>MOLECULE
*****
 35 38 0 0 0
SMALL
GASTEIGER

@<TRIPOS>ATOM
      1 N          61.7120   87.4948   11.3877 N.pl3   1  UNL1       -0.2138
      2 H          60.8736   87.8399   11.0041 H       1  UNL1        0.1738
      3 C          62.3110   85.3661   10.0242 C.ar    1  UNL1        0.0591
      4 C          62.6101   83.8970    9.9738 C.ar    1  UNL1        0.0111
      5 C          62.6093   83.0878   11.2369 C.ar    1  UNL1       -0.0234
      6 C          62.3095   83.7476   12.5501 C.ar    1  UNL1       -0.0233
      7 C          62.0104   85.2166   12.6005 C.ar    1  UNL1        0.0126
      8 C          62.0111   86.0258   11.3375 C.ar    1  UNL1        0.0775
      9 C          62.2572   83.1306   13.9164 C.3     1  UNL1        0.0434
     10 C          62.4919   81.7013   14.3067 C.3     1  UNL1        0.0768
     11 N          62.8367   80.5363   13.4273 N.3     1  UNL1       -0.2709
     12 C          63.0090   79.2209   14.1274 C.3     1  UNL1        0.0897
     13 C          63.0322   80.5125   11.9403 C.3     1  UNL1        0.0768
     14 C          62.9310   81.6480   10.9654 C.3     1  UNL1        0.0434
     15 N          62.3118   86.1752    8.7611 N.pl3   1  UNL1       -0.3331
     16 H          62.9284   86.9366    8.6647 H       1  UNL1        0.1468
     17 C          61.8246   84.9103    6.5446 C.3     1  UNL1        0.0212
     18 C          61.3730   85.8242    7.6451 C.3     1  UNL1        0.0692
     19 C          59.9827   86.3870    7.6295 C.3     1  UNL1        0.0212
     20 S          62.6904   88.4381   12.0225 S.O2    1  UNL1        0.0736
     21 O          63.3384   87.2873   12.7338 O.2     1  UNL1       -0.1499
     22 O          62.0425   89.5889   11.3112 O.2     1  UNL1       -0.1499
     23 C          63.6689   89.3814   12.6573 C.ar    1  UNL1        0.1252
     24 C          64.2997   89.0341   13.9732 C.ar    1  UNL1        0.0202
     25 C          65.2781   89.9775   14.6079 C.ar    1  UNL1        0.0014
     26 C          65.6257   91.2679   13.9269 C.ar    1  UNL1        0.0001
     27 C          64.9950   91.6151   12.6110 C.ar    1  UNL1        0.0014
     28 C          64.0165   90.6718   11.9762 C.ar    1  UNL1        0.0202
     29 C          66.6041   92.2112   14.5616 C.ar    1  UNL1        0.0001
     30 C          66.5579   93.6737   14.2315 C.ar    1  UNL1        0.0009
     31 C          67.5363   94.6171   14.8662 C.ar    1  UNL1        0.0114
     32 C          68.5609   94.0980   15.8310 C.ar    1  UNL1        0.0577
     33 CL         69.5393   95.0414   16.4656 Cl      1  UNL1       -0.0822
     34 C          68.6071   92.6354   16.1610 C.ar    1  UNL1        0.0114
     35 C          67.6288   91.6922   15.5263 C.ar    1  UNL1        0.0009
@<TRIPOS>BOND
     1    17    18    1
     2    18    19    1
     3    18    15    1
     4    15     3    1
     5     3     4   ar
     6     4     5   ar
     7     5     6   ar
     8     6     7   ar
     9     7     8   ar
    10     8     1    1
    11     1    20    1
    12    20    21    2
    13    20    22    2
    14    20    23    1
    15    23    24   ar
    16    24    25   ar
    17    25    26   ar
    18    26    29    1
    19    29    30   ar
    20    30    31   ar
    21    31    32   ar
    22    32    33    1
    23    32    34   ar
    24    34    35   ar
    25    26    27   ar
    26    27    28   ar
    27     6     9    1
    28     9    10    1
    29    10    11    1
    30    11    12    1
    31    11    13    1
    32    13    14    1
    33     8     3   ar
    34    28    23   ar
    35    14     5    1
    36    35    29   ar
    37    15    16    1
    38     1     2    1
@<TRIPOS>MOLECULE
*****
 35 38 0 0 0
SMALL
GASTEIGER

@<TRIPOS>ATOM
      1 N          64.3949   91.6248   13.7935 N.pl3   1  UNL1       -0.2138
      2 H          63.9648   92.1279   14.5223 H       1  UNL1        0.1738
      3 C          66.7813   92.1830   12.9314 C.ar    1  UNL1        0.0591
      4 C          67.6793   92.8901   11.9600 C.ar    1  UNL1        0.0111
      5 C          67.0886   93.7462   10.8791 C.ar    1  UNL1       -0.0234
      6 C          65.6001   93.8951   10.7697 C.ar    1  UNL1       -0.0233
      7 C          64.7021   93.1881   11.7411 C.ar    1  UNL1        0.0126
      8 C          65.2927   92.3320   12.8220 C.ar    1  UNL1        0.0775
      9 C          64.8106   94.6936    9.7751 C.3     1  UNL1        0.0434
     10 C          65.3149   95.5404    8.6442 C.3     1  UNL1        0.0768
     11 N          66.7329   95.7977    8.2287 N.3     1  UNL1       -0.2709
     12 C          66.9104   96.7002    7.0438 C.3     1  UNL1        0.0897
     13 C          67.9972   95.2719    8.8414 C.3     1  UNL1        0.0768
     14 C          68.1554   94.3589   10.0209 C.3     1  UNL1        0.0434
     15 N          67.3720   91.3269   14.0122 N.pl3   1  UNL1       -0.3331
     16 H          67.5209   90.3668   13.8536 H       1  UNL1        0.1468
     17 C          69.1720   91.9900   15.7646 C.3     1  UNL1        0.0212
     18 C          67.7359   91.9339   15.3349 C.3     1  UNL1        0.0692
     19 C          66.6638   92.4848   16.2277 C.3     1  UNL1        0.0212
     20 S          64.1522   90.1511   13.6544 S.O2    1  UNL1        0.0736
     21 O          64.6762   89.9339   15.0431 O.2     1  UNL1       -0.1499
     22 O          63.6283   90.3684   12.2658 O.2     1  UNL1       -0.1499
     23 C          63.9096   88.6774   13.5154 C.ar    1  UNL1        0.1252
     24 C          64.4046   87.7330   14.5705 C.ar    1  UNL1        0.0202
     25 C          64.1620   86.2593   14.4314 C.ar    1  UNL1        0.0014
     26 C          63.4243   85.7300   13.2374 C.ar    1  UNL1        0.0001
     27 C          62.9293   86.6744   12.1823 C.ar    1  UNL1        0.0014
     28 C          63.1719   88.1481   12.3214 C.ar    1  UNL1        0.0202
     29 C          63.1816   84.2563   13.0983 C.ar    1  UNL1        0.0001
     30 C          62.6455   83.4717   14.2589 C.ar    1  UNL1        0.0009
     31 C          62.4028   81.9980   14.1199 C.ar    1  UNL1        0.0114
     32 C          62.6962   81.3089   12.8202 C.ar    1  UNL1        0.0577
     33 CL         62.4535   79.8352   12.6812 Cl      1  UNL1       -0.0822
     34 C          63.2323   82.0936   11.6596 C.ar    1  UNL1        0.0114
     35 C          63.4750   83.5671   11.7987 C.ar    1  UNL1        0.0009
@<TRIPOS>BOND
     1    17    18    1
     2    18    19    1
     3    18    15    1
     4    15     3    1
     5     3     4   ar
     6     4     5   ar
     7     5     6   ar
     8     6     7   ar
     9     7     8   ar
    10     8     1    1
    11     1    20    1
    12    20    21    2
    13    20    22    2
    14    20    23    1
    15    23    24   ar
    16    24    25   ar
    17    25    26   ar
    18    26    29    1
    19    29    30   ar
    20    30    31   ar
    21    31    32   ar
    22    32    33    1
    23    32    34   ar
    24    34    35   ar
    25    26    27   ar
    26    27    28   ar
    27     6     9    1
    28     9    10    1
    29    10    11    1
    30    11    12    1
    31    11    13    1
    32    13    14    1
    33     8     3   ar
    34    28    23   ar
    35    14     5    1
    36    35    29   ar
    37    15    16    1
    38     1     2    1
@<TRIPOS>MOLECULE
*****
 35 38 0 0 0
SMALL
GASTEIGER

@<TRIPOS>ATOM
      1 N          59.0020   88.7277    7.3391 N.pl3   1  UNL1       -0.2138
      2 H          58.1320   88.2685    7.3018 H       1  UNL1        0.1738
      3 C          60.5868   87.0716    8.5621 C.ar    1  UNL1        0.0591
      4 C          61.5448   86.7739    9.6773 C.ar    1  UNL1        0.0111
      5 C          61.8759   87.8348   10.6848 C.ar    1  UNL1       -0.0234
      6 C          61.2490   89.1932   10.5770 C.ar    1  UNL1       -0.0233
      7 C          60.2911   89.4909    9.4618 C.ar    1  UNL1        0.0126
      8 C          59.9599   88.4301    8.4543 C.ar    1  UNL1        0.0775
      9 C          61.4401   90.3848   11.4680 C.3     1  UNL1        0.0434
     10 C          62.3052   90.5121   12.6868 C.3     1  UNL1        0.0768
     11 N          63.1928   89.4793   13.3156 N.3     1  UNL1       -0.2709
     12 C          63.9370   89.9200   14.5411 C.3     1  UNL1        0.0897
     13 C          63.4347   88.0642   12.8810 C.3     1  UNL1        0.0768
     14 C          62.8486   87.3323   11.7101 C.3     1  UNL1        0.0434
     15 N          60.2557   86.0107    7.5547 N.pl3   1  UNL1       -0.3331
     16 H          59.3279   85.8980    7.2452 H       1  UNL1        0.1468
     17 C          61.0629   84.2278    5.8458 C.3     1  UNL1        0.0212
     18 C          61.3384   85.1215    7.0187 C.3     1  UNL1        0.0692
     19 C          62.6965   85.1259    7.6555 C.3     1  UNL1        0.0212
     20 S          59.3697   89.7249    6.2807 S.O2    1  UNL1        0.0736
     21 O          57.9269   90.1116    6.1437 O.2     1  UNL1       -0.1499
     22 O          60.8126   89.3383    6.4177 O.2     1  UNL1       -0.1499
     23 C          59.7375   90.7222    5.2222 C.ar    1  UNL1        0.1252
     24 C          58.6888   91.6290    4.6494 C.ar    1  UNL1        0.0202
     25 C          59.0566   92.6262    3.5910 C.ar    1  UNL1        0.0014
     26 C          60.4729   92.7168    3.1054 C.ar    1  UNL1        0.0001
     27 C          61.5216   91.8100    3.6783 C.ar    1  UNL1        0.0014
     28 C          61.1539   90.8128    4.7367 C.ar    1  UNL1        0.0202
     29 C          60.8407   93.7140    2.0470 C.ar    1  UNL1        0.0001
     30 C          61.7650   93.3192    0.9334 C.ar    1  UNL1        0.0009
     31 C          62.1328   94.3164   -0.1250 C.ar    1  UNL1        0.0114
     32 C          61.5765   95.7084   -0.0699 C.ar    1  UNL1        0.0577
     33 CL         61.9443   96.7055   -1.1284 Cl      1  UNL1       -0.0822
     34 C          60.6522   96.1031    1.0437 C.ar    1  UNL1        0.0114
     35 C          60.2844   95.1059    2.1021 C.ar    1  UNL1        0.0009
@<TRIPOS>BOND
     1    17    18    1
     2    18    19    1
     3    18    15    1
     4    15     3    1
     5     3     4   ar
     6     4     5   ar
     7     5     6   ar
     8     6     7   ar
     9     7     8   ar
    10     8     1    1
    11     1    20    1
    12    20    21    2
    13    20    22    2
    14    20    23    1
    15    23    24   ar
    16    24    25   ar
    17    25    26   ar
    18    26    29    1
    19    29    30   ar
    20    30    31   ar
    21    31    32   ar
    22    32    33    1
    23    32    34   ar
    24    34    35   ar
    25    26    27   ar
    26    27    28   ar
    27     6     9    1
    28     9    10    1
    29    10    11    1
    30    11    12    1
    31    11    13    1
    32    13    14    1
    33     8     3   ar
    34    28    23   ar
    35    14     5    1
    36    35    29   ar
    37    15    16    1
    38     1     2    1
@<TRIPOS>MOLECULE
*****
 35 38 0 0 0
SMALL
GASTEIGER

@<TRIPOS>ATOM
      1 N          61.1449   94.9875   -4.7783 N.pl3   1  UNL1       -0.2138
      2 H          61.6219   95.0410   -5.6379 H       1  UNL1        0.1738
      3 C          63.2779   95.2259   -3.3142 C.ar    1  UNL1        0.0591
      4 C          64.0320   94.9109   -2.0563 C.ar    1  UNL1        0.0111
      5 C          63.4071   94.0426   -1.0048 C.ar    1  UNL1       -0.0234
      6 C          62.0283   93.4894   -1.2111 C.ar    1  UNL1       -0.0233
      7 C          61.2742   93.8043   -2.4689 C.ar    1  UNL1        0.0126
      8 C          61.8990   94.6725   -3.5205 C.ar    1  UNL1        0.0775
      9 C          61.2269   92.6103   -0.2972 C.3     1  UNL1        0.0434
     10 C          61.6065   92.0674    1.0486 C.3     1  UNL1        0.0768
     11 N          62.8812   92.2695    1.8129 N.3     1  UNL1       -0.2709
     12 C          62.9558   91.5864    3.1462 C.3     1  UNL1        0.0897
     13 C          64.0911   93.0644    1.4203 C.3     1  UNL1        0.0768
     14 C          64.3252   93.8535    0.1663 C.3     1  UNL1        0.0434
     15 N          63.9027   96.0941   -4.3657 N.pl3   1  UNL1       -0.3331
     16 H          63.5800   97.0145   -4.4997 H       1  UNL1        0.1468
     17 C          65.0163   94.1214   -5.6379 C.3     1  UNL1        0.0212
     18 C          65.0194   95.5599   -5.2130 C.3     1  UNL1        0.0692
     19 C          66.1390   96.4643   -5.6353 C.3     1  UNL1        0.0212
     20 S          59.6641   95.2210   -4.7265 S.O2    1  UNL1        0.0736
     21 O          59.8866   96.4467   -3.8909 O.2     1  UNL1       -0.1499
     22 O          59.4416   93.9953   -5.5621 O.2     1  UNL1       -0.1499
     23 C          58.1833   95.4545   -4.6746 C.ar    1  UNL1        0.1252
     24 C          57.5470   96.4438   -5.6055 C.ar    1  UNL1        0.0202
     25 C          56.0662   96.6772   -5.5536 C.ar    1  UNL1        0.0014
     26 C          55.2217   95.9214   -4.5710 C.ar    1  UNL1        0.0001
     27 C          55.8580   94.9321   -3.6401 C.ar    1  UNL1        0.0014
     28 C          57.3388   94.6986   -3.6920 C.ar    1  UNL1        0.0202
     29 C          53.7408   96.1548   -4.5190 C.ar    1  UNL1        0.0001
     30 C          53.0209   96.1141   -3.2037 C.ar    1  UNL1        0.0009
     31 C          51.5401   96.3475   -3.1517 C.ar    1  UNL1        0.0114
     32 C          50.7792   96.6216   -4.4150 C.ar    1  UNL1        0.0577
     33 CL         49.2983   96.8550   -4.3630 Cl      1  UNL1       -0.0822
     34 C          51.4992   96.6622   -5.7304 C.ar    1  UNL1        0.0114
     35 C          52.9799   96.4288   -5.7823 C.ar    1  UNL1        0.0009
@<TRIPOS>BOND
     1    17    18    1
     2    18    19    1
     3    18    15    1
     4    15     3    1
     5     3     4   ar
     6     4     5   ar
     7     5     6   ar
     8     6     7   ar
     9     7     8   ar
    10     8     1    1
    11     1    20    1
    12    20    21    2
    13    20    22    2
    14    20    23    1
    15    23    24   ar
    16    24    25   ar
    17    25    26   ar
    18    26    29    1
    19    29    30   ar
    20    30    31   ar
    21    31    32   ar
    22    32    33    1
    23    32    34   ar
    24    34    35   ar
    25    26    27   ar
    26    27    28   ar
    27     6     9    1
    28     9    10    1
    29    10    11    1
    30    11    12    1
    31    11    13    1
    32    13    14    1
    33     8     3   ar
    34    28    23   ar
    35    14     5    1
    36    35    29   ar
    37    15    16    1
    38     1     2    1
@<TRIPOS>MOLECULE
*****
 35 38 0 0 0
SMALL
GASTEIGER

@<TRIPOS>ATOM
      1 N          60.7572   95.3724   -3.5728 N.pl3   1  UNL1       -0.2138
      2 H          61.3948   95.6813   -4.2563 H       1  UNL1        0.1738
      3 C          62.7326   94.5507   -2.0989 C.ar    1  UNL1        0.0591
      4 C          63.2364   93.9385   -0.8255 C.ar    1  UNL1        0.0111
      5 C          62.2683   93.5356    0.2472 C.ar    1  UNL1       -0.0234
      6 C          60.7967   93.7450    0.0466 C.ar    1  UNL1       -0.0233
      7 C          60.2929   94.3572   -1.2267 C.ar    1  UNL1        0.0126
      8 C          61.2609   94.7601   -2.2995 C.ar    1  UNL1        0.0775
      9 C          59.6695   93.4173    0.9805 C.3     1  UNL1        0.0434
     10 C          59.7358   92.7993    2.3458 C.3     1  UNL1        0.0768
     11 N          60.9454   92.3564    3.1141 N.3     1  UNL1       -0.2709
     12 C          60.6774   91.7703    4.4686 C.3     1  UNL1        0.0897
     13 C          62.3877   92.4220    2.7072 C.3     1  UNL1        0.0768
     14 C          62.9765   92.9468    1.4313 C.3     1  UNL1        0.0434
     15 N          63.7006   94.9536   -3.1715 N.pl3   1  UNL1       -0.3331
     16 H          64.0406   95.8768   -3.2063 H       1  UNL1        0.1468
     17 C          63.7823   92.5040   -4.0338 C.3     1  UNL1        0.0212
     18 C          64.1505   93.9496   -4.1913 C.3     1  UNL1        0.0692
     19 C          64.9685   94.3913   -5.3684 C.3     1  UNL1        0.0212
     20 S          59.2820   95.5139   -3.8046 S.O2    1  UNL1        0.0736
     21 O          59.2584   94.1718   -4.4742 O.2     1  UNL1       -0.1499
     22 O          59.3055   96.8560   -3.1351 O.2     1  UNL1       -0.1499
     23 C          57.8067   95.6554   -4.0365 C.ar    1  UNL1        0.1252
     24 C          56.8407   95.3434   -2.9322 C.ar    1  UNL1        0.0202
     25 C          55.3655   95.4850   -3.1641 C.ar    1  UNL1        0.0014
     26 C          54.8563   95.9385   -4.5001 C.ar    1  UNL1        0.0001
     27 C          55.8224   96.2504   -5.6044 C.ar    1  UNL1        0.0014
     28 C          57.2976   96.1089   -5.3726 C.ar    1  UNL1        0.0202
     29 C          53.3811   96.0800   -4.7320 C.ar    1  UNL1        0.0001
     30 C          52.8538   96.2461   -6.1265 C.ar    1  UNL1        0.0009
     31 C          51.3786   96.3877   -6.3585 C.ar    1  UNL1        0.0114
     32 C          50.4308   96.3631   -5.1961 C.ar    1  UNL1        0.0577
     33 CL         48.9556   96.5047   -5.4281 Cl      1  UNL1       -0.0822
     34 C          50.9582   96.1970   -3.8017 C.ar    1  UNL1        0.0114
     35 C          52.4333   96.0554   -3.5697 C.ar    1  UNL1        0.0009
@<TRIPOS>BOND
     1    17    18    1
     2    18    19    1
     3    18    15    1
     4    15     3    1
     5     3     4   ar
     6     4     5   ar
     7     5     6   ar
     8     6     7   ar
     9     7     8   ar
    10     8     1    1
    11     1    20    1
    12    20    21    2
    13    20    22    2
    14    20    23    1
    15    23    24   ar
    16    24    25   ar
    17    25    26   ar
    18    26    29    1
    19    29    30   ar
    20    30    31   ar
    21    31    32   ar
    22    32    33    1
    23    32    34   ar
    24    34    35   ar
    25    26    27   ar
    26    27    28   ar
    27     6     9    1
    28     9    10    1
    29    10    11    1
    30    11    12    1
    31    11    13    1
    32    13    14    1
    33     8     3   ar
    34    28    23   ar
    35    14     5    1
    36    35    29   ar
    37    15    16    1
    38     1     2    1
@<TRIPOS>MOLECULE
*****
 35 38 0 0 0
SMALL
GASTEIGER

@<TRIPOS>ATOM
      1 N          60.2232   94.4280    0.9117 N.pl3   1  UNL1       -0.2138
      2 H          60.5876   95.3350    1.0297 H       1  UNL1        0.1738
      3 C          60.5179   94.3173   -1.6672 C.ar    1  UNL1        0.0591
      4 C          60.0243   93.8766   -3.0134 C.ar    1  UNL1        0.0111
      5 C          58.7423   93.1061   -3.1268 C.ar    1  UNL1       -0.0234
      6 C          57.9540   92.7763   -1.8941 C.ar    1  UNL1       -0.0233
      7 C          58.4476   93.2169   -0.5479 C.ar    1  UNL1        0.0126
      8 C          59.7296   93.9874   -0.4345 C.ar    1  UNL1        0.0775
      9 C          56.6609   92.0239   -1.7843 C.3     1  UNL1        0.0434
     10 C          55.8369   91.4156   -2.8802 C.3     1  UNL1        0.0768
     11 N          56.1024   91.4095   -4.3564 N.3     1  UNL1       -0.2709
     12 C          55.0773   90.7102   -5.1992 C.3     1  UNL1        0.0897
     13 C          57.2575   92.0100   -5.1015 C.3     1  UNL1        0.0768
     14 C          58.4324   92.7651   -4.5543 C.3     1  UNL1        0.0434
     15 N          61.7999   95.0877   -1.5539 N.pl3   1  UNL1       -0.3331
     16 H          61.7829   96.0720   -1.5376 H       1  UNL1        0.1468
     17 C          63.5810   93.8247   -0.1457 C.3     1  UNL1        0.0212
     18 C          63.1078   94.3586   -1.4653 C.3     1  UNL1        0.0692
     19 C          63.9425   94.1632   -2.6962 C.3     1  UNL1        0.0212
     20 S          60.1618   93.4868    2.0780 S.O2    1  UNL1        0.0736
     21 O          59.7748   94.6244    2.9757 O.2     1  UNL1       -0.1499
     22 O          60.5488   92.3491    1.1802 O.2     1  UNL1       -0.1499
     23 C          60.1003   92.5455    3.2443 C.ar    1  UNL1        0.1252
     24 C          58.8009   92.3213    3.9595 C.ar    1  UNL1        0.0202
     25 C          58.7396   91.3801    5.1257 C.ar    1  UNL1        0.0014
     26 C          59.9774   90.6630    5.5769 C.ar    1  UNL1        0.0001
     27 C          61.2767   90.8871    4.8617 C.ar    1  UNL1        0.0014
     28 C          61.3382   91.8284    3.6954 C.ar    1  UNL1        0.0202
     29 C          59.9160   89.7217    6.7432 C.ar    1  UNL1        0.0001
     30 C          60.4810   90.1340    8.0702 C.ar    1  UNL1        0.0009
     31 C          60.4197   89.1928    9.2365 C.ar    1  UNL1        0.0114
     32 C          59.7934   87.8393    9.0759 C.ar    1  UNL1        0.0577
     33 CL         59.7320   86.8980   10.2422 Cl      1  UNL1       -0.0822
     34 C          59.2284   87.4270    7.7489 C.ar    1  UNL1        0.0114
     35 C          59.2897   88.3682    6.5826 C.ar    1  UNL1        0.0009
@<TRIPOS>BOND
     1    17    18    1
     2    18    19    1
     3    18    15    1
     4    15     3    1
     5     3     4   ar
     6     4     5   ar
     7     5     6   ar
     8     6     7   ar
     9     7     8   ar
    10     8     1    1
    11     1    20    1
    12    20    21    2
    13    20    22    2
    14    20    23    1
    15    23    24   ar
    16    24    25   ar
    17    25    26   ar
    18    26    29    1
    19    29    30   ar
    20    30    31   ar
    21    31    32   ar
    22    32    33    1
    23    32    34   ar
    24    34    35   ar
    25    26    27   ar
    26    27    28   ar
    27     6     9    1
    28     9    10    1
    29    10    11    1
    30    11    12    1
    31    11    13    1
    32    13    14    1
    33     8     3   ar
    34    28    23   ar
    35    14     5    1
    36    35    29   ar
    37    15    16    1
    38     1     2    1
@<TRIPOS>MOLECULE
*****
 35 38 0 0 0
SMALL
GASTEIGER

@<TRIPOS>ATOM
      1 N          59.8846   94.5973    1.0002 N.pl3   1  UNL1       -0.2138
      2 H          59.2522   95.3518    1.0012 H       1  UNL1        0.1738
      3 C          62.3149   94.2805    0.1382 C.ar    1  UNL1        0.0591
      4 C          63.2781   94.1106   -0.9992 C.ar    1  UNL1        0.0111
      5 C          62.7740   94.0877   -2.4118 C.ar    1  UNL1       -0.0234
      6 C          61.3069   94.2345   -2.6870 C.ar    1  UNL1       -0.0233
      7 C          60.3437   94.4044   -1.5498 C.ar    1  UNL1        0.0126
      8 C          60.8477   94.4274   -0.1371 C.ar    1  UNL1        0.0775
      9 C          60.5993   94.2391   -4.0097 C.3     1  UNL1        0.0434
     10 C          61.1843   94.0978   -5.3838 C.3     1  UNL1        0.0768
     11 N          62.6211   93.9172   -5.7744 N.3     1  UNL1       -0.2709
     12 C          62.8862   93.8058   -7.2466 C.3     1  UNL1        0.0897
     13 C          63.8280   93.8331   -4.8877 C.3     1  UNL1        0.0768
     14 C          63.8961   93.9090   -3.3911 C.3     1  UNL1        0.0434
     15 N          62.8190   94.3035    1.5507 N.pl3   1  UNL1       -0.3331
     16 H          62.6342   93.5459    2.1517 H       1  UNL1        0.1468
     17 C          64.9877   95.2830    2.5936 C.3     1  UNL1        0.0212
     18 C          63.6047   95.4807    2.0475 C.3     1  UNL1        0.0692
     19 C          63.0074   96.8558    1.9983 C.3     1  UNL1        0.0212
     20 S          59.8851   93.6175    2.1360 S.O2    1  UNL1        0.0736
     21 O          60.1010   94.7415    3.1055 O.2     1  UNL1       -0.1499
     22 O          59.6692   92.4935    1.1665 O.2     1  UNL1       -0.1499
     23 C          59.8856   92.6377    3.2718 C.ar    1  UNL1        0.1252
     24 C          58.6112   92.3377    4.0040 C.ar    1  UNL1        0.0202
     25 C          58.6118   91.3579    5.1398 C.ar    1  UNL1        0.0014
     26 C          59.8865   90.6782    5.5435 C.ar    1  UNL1        0.0001
     27 C          61.1609   90.9782    4.8113 C.ar    1  UNL1        0.0014
     28 C          61.1604   91.9580    3.6755 C.ar    1  UNL1        0.0202
     29 C          59.8871   89.6984    6.6792 C.ar    1  UNL1        0.0001
     30 C          59.3326   88.3190    6.4799 C.ar    1  UNL1        0.0009
     31 C          59.3331   87.3391    7.6157 C.ar    1  UNL1        0.0114
     32 C          59.8882   87.7387    8.9507 C.ar    1  UNL1        0.0577
     33 CL         59.8887   86.7589   10.0865 Cl      1  UNL1       -0.0822
     34 C          60.4427   89.1182    9.1500 C.ar    1  UNL1        0.0114
     35 C          60.4421   90.0979    8.0143 C.ar    1  UNL1        0.0009
@<TRIPOS>BOND
     1    17    18    1
     2    18    19    1
     3    18    15    1
     4    15     3    1
     5     3     4   ar
     6     4     5   ar
     7     5     6   ar
     8     6     7   ar
     9     7     8   ar
    10     8     1    1
    11     1    20    1
    12    20    21    2
    13    20    22    2
    14    20    23    1
    15    23    24   ar
    16    24    25   ar
    17    25    26   ar
    18    26    29    1
    19    29    30   ar
    20    30    31   ar
    21    31    32   ar
    22    32    33    1
    23    32    34   ar
    24    34    35   ar
    25    26    27   ar
    26    27    28   ar
    27     6     9    1
    28     9    10    1
    29    10    11    1
    30    11    12    1
    31    11    13    1
    32    13    14    1
    33     8     3   ar
    34    28    23   ar
    35    14     5    1
    36    35    29   ar
    37    15    16    1
    38     1     2    1
