@<TRIPOS>MOLECULE
*****
 36 39 0 0 0
SMALL
GASTEIGER

@<TRIPOS>ATOM
      1 O          63.1298   88.3153   13.6527 O.3     1  UNL1       -0.4745
      2 C          63.8782   89.5691   13.3097 C.ar    1  UNL1        0.1513
      3 C          64.9834   90.0507   14.2022 C.ar    1  UNL1        0.0688
      4 C          65.7318   91.3045   13.8592 C.ar    1  UNL1        0.1620
      5 F          66.8371   91.7862   14.7517 F       1  UNL1       -0.2026
      6 C          65.3752   92.0768   12.6237 C.ar    1  UNL1        0.1535
      7 C          64.2699   91.5951   11.7312 C.ar    1  UNL1        0.0369
      8 C          63.5215   90.3413   12.0742 C.ar    1  UNL1        0.0930
      9 CL         62.4163   89.8596   11.1817 Cl      1  UNL1       -0.0790
     10 S          66.1236   93.3306   12.2807 S.O2    1  UNL1        0.0773
     11 O          65.7980   93.8947   13.6320 O.2     1  UNL1       -0.1498
     12 O          66.4493   92.7666   10.9295 O.2     1  UNL1       -0.1498
     13 N          66.8721   94.5845   11.9377 N.pl3   1  UNL1       -0.1925
     14 H          67.5202   94.9612   12.5760 H       1  UNL1        0.1758
     15 C          66.6330   95.2645   10.6223 C.ar    1  UNL1        0.1977
     16 N          67.5091   95.1691    9.4084 N.ar    1  UNL1       -0.1997
     17 C          66.8936   96.0048    8.3256 C.ar    1  UNL1        0.2082
     18 N          65.6370   96.6167    8.8701 N.ar    1  UNL1       -0.1840
     19 S          65.4760   96.1591   10.2895 S.2     1  UNL1        0.0508
     20 C          63.5612   87.0014   13.0716 C.3     1  UNL1        0.2058
     21 C          62.6644   86.2742   12.1140 C.3     1  UNL1        0.0514
     22 N          63.8094   81.1252   14.3542 N.3     1  UNL1       -0.3222
     23 C          63.4703   82.3464   13.5520 C.3     1  UNL1        0.0508
     24 C          63.4787   83.6977   14.2031 C.3     1  UNL1        0.0158
     25 C          63.1396   84.9189   13.4009 C.3     1  UNL1        0.0055
     26 C          62.7922   84.7889   11.9475 C.3     1  UNL1        0.0226
     27 C          62.7838   83.4377   11.2964 C.3     1  UNL1        0.0055
     28 C          63.1229   82.2165   12.0986 C.3     1  UNL1        0.0158
     29 H          64.0180   81.3967   15.3151 H       1  UNL1        0.1188
     30 H          64.6237   80.6657   13.9464 H       1  UNL1        0.1188
     31 C          62.4004   85.1748   10.5519 C.ar    1  UNL1       -0.0227
     32 C          63.2274   84.7172    9.3872 C.ar    1  UNL1       -0.0043
     33 C          62.8355   85.1030    7.9915 C.ar    1  UNL1       -0.0003
     34 C          61.6168   85.9464    7.7608 C.ar    1  UNL1       -0.0000
     35 C          60.7897   86.4040    8.9256 C.ar    1  UNL1       -0.0003
     36 C          61.1816   86.0181   10.3211 C.ar    1  UNL1       -0.0043
@<TRIPOS>BOND
     1    23    22    1
     2    23    24    1
     3    24    25    1
     4    25    26    1
     5    26    21    1
     6    21    20    1
     7    20     1    1
     8     1     2    1
     9     2     3   ar
    10     3     4   ar
    11     4     5    1
    12     4     6   ar
    13     6    10    1
    14    10    11    2
    15    10    12    2
    16    10    13    1
    17    13    15    1
    18    15    16   ar
    19    16    17   ar
    20    17    18   ar
    21    18    19   ar
    22     6     7   ar
    23     7     8   ar
    24     8     9    1
    25    26    31    1
    26    31    32   ar
    27    32    33   ar
    28    33    34   ar
    29    34    35   ar
    30    35    36   ar
    31    26    27    1
    32    27    28    1
    33    28    23    1
    34     8     2   ar
    35    36    31   ar
    36    19    15   ar
    37    22    29    1
    38    22    30    1
    39    13    14    1
@<TRIPOS>MOLECULE
*****
 36 39 0 0 0
SMALL
GASTEIGER

@<TRIPOS>ATOM
      1 O          63.6471   88.9829   16.4339 O.3     1  UNL1       -0.4745
      2 C          63.5174   87.5303   16.0832 C.ar    1  UNL1        0.1513
      3 C          63.9653   87.0406   14.7380 C.ar    1  UNL1        0.0688
      4 C          63.8356   85.5881   14.3873 C.ar    1  UNL1        0.1620
      5 F          64.2836   85.0983   13.0420 F       1  UNL1       -0.2026
      6 C          63.2579   84.6250   15.3817 C.ar    1  UNL1        0.1535
      7 C          62.8100   85.1147   16.7270 C.ar    1  UNL1        0.0369
      8 C          62.9397   86.5673   17.0777 C.ar    1  UNL1        0.0930
      9 CL         62.4917   87.0570   18.4229 Cl      1  UNL1       -0.0790
     10 S          63.1282   83.1724   15.0310 S.O2    1  UNL1        0.0773
     11 O          64.5695   82.9577   15.3870 O.2     1  UNL1       -0.1498
     12 O          61.6870   83.3871   14.6751 O.2     1  UNL1       -0.1498
     13 N          62.9985   81.7197   14.6803 N.pl3   1  UNL1       -0.1925
     14 H          62.9110   81.0470   15.3937 H       1  UNL1        0.1758
     15 C          63.0022   81.2922   13.2425 C.ar    1  UNL1        0.1977
     16 N          62.6147   79.9390   12.7241 N.ar    1  UNL1       -0.1997
     17 C          62.7671   79.9531   11.2320 C.ar    1  UNL1        0.2082
     18 N          63.2488   81.3150   10.8281 N.ar    1  UNL1       -0.1840
     19 S          63.3941   82.1426   12.0708 S.2     1  UNL1        0.0508
     20 C          63.6854   90.0164   15.3474 C.3     1  UNL1        0.2058
     21 C          64.9996   90.5782   14.8927 C.3     1  UNL1        0.0514
     22 N          62.9328   91.5106    9.6295 N.3     1  UNL1       -0.3222
     23 C          63.6554   91.4304   10.9415 C.3     1  UNL1        0.0508
     24 C          63.1349   90.5409   12.0313 C.3     1  UNL1        0.0158
     25 C          63.8575   90.4608   13.3434 C.3     1  UNL1        0.0055
     26 C          65.1006   91.2701   13.5656 C.3     1  UNL1        0.0226
     27 C          65.6212   92.1596   12.4757 C.3     1  UNL1        0.0055
     28 C          64.8986   92.2398   11.1637 C.3     1  UNL1        0.0158
     29 H          62.1162   90.8999    9.6532 H       1  UNL1        0.1188
     30 H          63.5569   91.2146    8.8790 H       1  UNL1        0.1188
     31 C          66.3088   91.8393   14.2487 C.ar    1  UNL1       -0.0227
     32 C          66.1763   92.4733   15.6016 C.ar    1  UNL1       -0.0043
     33 C          67.3844   93.0425   16.2847 C.ar    1  UNL1       -0.0003
     34 C          68.7250   92.9774   15.6148 C.ar    1  UNL1       -0.0000
     35 C          68.8574   92.3433   14.2619 C.ar    1  UNL1       -0.0003
     36 C          67.6493   91.7743   13.5789 C.ar    1  UNL1       -0.0043
@<TRIPOS>BOND
     1    23    22    1
     2    23    24    1
     3    24    25    1
     4    25    26    1
     5    26    21    1
     6    21    20    1
     7    20     1    1
     8     1     2    1
     9     2     3   ar
    10     3     4   ar
    11     4     5    1
    12     4     6   ar
    13     6    10    1
    14    10    11    2
    15    10    12    2
    16    10    13    1
    17    13    15    1
    18    15    16   ar
    19    16    17   ar
    20    17    18   ar
    21    18    19   ar
    22     6     7   ar
    23     7     8   ar
    24     8     9    1
    25    26    31    1
    26    31    32   ar
    27    32    33   ar
    28    33    34   ar
    29    34    35   ar
    30    35    36   ar
    31    26    27    1
    32    27    28    1
    33    28    23    1
    34     8     2   ar
    35    36    31   ar
    36    19    15   ar
    37    22    29    1
    38    22    30    1
    39    13    14    1
@<TRIPOS>MOLECULE
*****
 36 39 0 0 0
SMALL
GASTEIGER

@<TRIPOS>ATOM
      1 O          62.7426   88.9893   13.1096 O.3     1  UNL1       -0.4745
      2 C          63.6248   90.1408   12.7281 C.ar    1  UNL1        0.1513
      3 C          63.4118   90.8484   11.4227 C.ar    1  UNL1        0.0688
      4 C          64.2941   91.9999   11.0412 C.ar    1  UNL1        0.1620
      5 F          64.0810   92.7075    9.7357 F       1  UNL1       -0.2026
      6 C          65.3893   92.4439   11.9648 C.ar    1  UNL1        0.1535
      7 C          65.6023   91.7362   13.2703 C.ar    1  UNL1        0.0369
      8 C          64.7201   90.5847   13.6518 C.ar    1  UNL1        0.0930
      9 CL         64.9331   89.8771   14.9572 Cl      1  UNL1       -0.0790
     10 S          66.2715   93.5954   11.5833 S.O2    1  UNL1        0.0773
     11 O          66.8176   92.7971   10.4366 O.2     1  UNL1       -0.1498
     12 O          65.7256   94.3936   12.7298 O.2     1  UNL1       -0.1498
     13 N          67.1538   94.7469   11.2017 N.pl3   1  UNL1       -0.1925
     14 H          67.9250   94.9843   11.7657 H       1  UNL1        0.1758
     15 C          66.8610   95.5368    9.9606 C.ar    1  UNL1        0.1977
     16 N          67.8309   95.8347    8.8557 N.ar    1  UNL1       -0.1997
     17 C          67.1163   96.6495    7.8187 C.ar    1  UNL1        0.2082
     18 N          65.7048   96.8553    8.2826 N.ar    1  UNL1       -0.1840
     19 S          65.5470   96.1676    9.6064 S.2     1  UNL1        0.0508
     20 C          61.8558   88.3511   12.0819 C.3     1  UNL1        0.2058
     21 C          62.3620   87.1991   11.2656 C.3     1  UNL1        0.0514
     22 N          58.6717   88.3874    7.0453 N.3     1  UNL1       -0.3222
     23 C          59.6548   87.8481    8.0416 C.3     1  UNL1        0.0508
     24 C          60.1301   88.7139    9.1705 C.3     1  UNL1        0.0158
     25 C          61.1132   88.1746   10.1668 C.3     1  UNL1        0.0055
     26 C          61.6210   86.7694   10.0342 C.3     1  UNL1        0.0226
     27 C          61.1457   85.9036    8.9053 C.3     1  UNL1        0.0055
     28 C          60.1626   86.4429    7.9090 C.3     1  UNL1        0.0158
     29 H          58.4368   89.3503    7.2864 H       1  UNL1        0.1188
     30 H          57.8259   87.8174    7.0593 H       1  UNL1        0.1188
     31 C          62.3861   85.5134   10.3293 C.ar    1  UNL1       -0.0227
     32 C          62.3612   84.9269   11.7096 C.ar    1  UNL1       -0.0043
     33 C          63.1264   83.6709   12.0047 C.ar    1  UNL1       -0.0003
     34 C          63.9164   83.0015   10.9194 C.ar    1  UNL1       -0.0000
     35 C          63.9413   83.5881    9.5391 C.ar    1  UNL1       -0.0003
     36 C          63.1762   84.8440    9.2441 C.ar    1  UNL1       -0.0043
@<TRIPOS>BOND
     1    23    22    1
     2    23    24    1
     3    24    25    1
     4    25    26    1
     5    26    21    1
     6    21    20    1
     7    20     1    1
     8     1     2    1
     9     2     3   ar
    10     3     4   ar
    11     4     5    1
    12     4     6   ar
    13     6    10    1
    14    10    11    2
    15    10    12    2
    16    10    13    1
    17    13    15    1
    18    15    16   ar
    19    16    17   ar
    20    17    18   ar
    21    18    19   ar
    22     6     7   ar
    23     7     8   ar
    24     8     9    1
    25    26    31    1
    26    31    32   ar
    27    32    33   ar
    28    33    34   ar
    29    34    35   ar
    30    35    36   ar
    31    26    27    1
    32    27    28    1
    33    28    23    1
    34     8     2   ar
    35    36    31   ar
    36    19    15   ar
    37    22    29    1
    38    22    30    1
    39    13    14    1
@<TRIPOS>MOLECULE
*****
 36 39 0 0 0
SMALL
GASTEIGER

@<TRIPOS>ATOM
      1 O          62.9901   89.9943   11.1394 O.3     1  UNL1       -0.4745
      2 C          63.1053   88.6684   11.8312 C.ar    1  UNL1        0.1513
      3 C          63.7920   88.5736   13.1614 C.ar    1  UNL1        0.0688
      4 C          63.9072   87.2477   13.8531 C.ar    1  UNL1        0.1620
      5 F          64.5940   87.1529   15.1834 F       1  UNL1       -0.2026
      6 C          63.3357   86.0165   13.2148 C.ar    1  UNL1        0.1535
      7 C          62.6490   86.1113   11.8846 C.ar    1  UNL1        0.0369
      8 C          62.5338   87.4372   11.1928 C.ar    1  UNL1        0.0930
      9 CL         61.8470   87.5320    9.8626 Cl      1  UNL1       -0.0790
     10 S          63.4509   84.6906   13.9066 S.O2    1  UNL1        0.0773
     11 O          64.8873   84.5952   13.4848 O.2     1  UNL1       -0.1498
     12 O          62.0147   84.7859   14.3284 O.2     1  UNL1       -0.1498
     13 N          63.5662   83.3646   14.5984 N.pl3   1  UNL1       -0.1925
     14 H          63.9338   83.3154   15.5104 H       1  UNL1        0.1758
     15 C          63.1213   82.1136   13.9006 C.ar    1  UNL1        0.1977
     16 N          62.2748   81.0266   14.4939 N.ar    1  UNL1       -0.1997
     17 C          62.0750   79.9710   13.4471 C.ar    1  UNL1        0.2082
     18 N          62.7980   80.4056   12.2068 N.ar    1  UNL1       -0.1840
     19 S          63.4446   81.7297   12.4872 S.2     1  UNL1        0.0508
     20 C          63.4938   91.2372   11.8113 C.3     1  UNL1        0.2058
     21 C          64.8405   91.7911   11.4516 C.3     1  UNL1        0.0514
     22 N          66.1140   92.6828   16.9675 N.3     1  UNL1       -0.3222
     23 C          65.9664   92.6149   15.4763 C.3     1  UNL1        0.0508
     24 C          64.9255   91.7242   14.8654 C.3     1  UNL1        0.0158
     25 C          64.7780   91.6563   13.3742 C.3     1  UNL1        0.0055
     26 C          65.6714   92.4790   12.4939 C.3     1  UNL1        0.0226
     27 C          66.7123   93.3696   13.1048 C.3     1  UNL1        0.0055
     28 C          66.8598   93.4376   14.5960 C.3     1  UNL1        0.0158
     29 H          65.4314   92.0640   17.4052 H       1  UNL1        0.1188
     30 H          65.9555   93.6402   17.2816 H       1  UNL1        0.1188
     31 C          66.2762   93.0629   11.2516 C.ar    1  UNL1       -0.0227
     32 C          65.8030   94.3911   10.7399 C.ar    1  UNL1       -0.0043
     33 C          66.4078   94.9749    9.4975 C.ar    1  UNL1       -0.0003
     34 C          67.4859   94.2305    8.7671 C.ar    1  UNL1       -0.0000
     35 C          67.9592   92.9023    9.2788 C.ar    1  UNL1       -0.0003
     36 C          67.3543   92.3185   10.5211 C.ar    1  UNL1       -0.0043
@<TRIPOS>BOND
     1    23    22    1
     2    23    24    1
     3    24    25    1
     4    25    26    1
     5    26    21    1
     6    21    20    1
     7    20     1    1
     8     1     2    1
     9     2     3   ar
    10     3     4   ar
    11     4     5    1
    12     4     6   ar
    13     6    10    1
    14    10    11    2
    15    10    12    2
    16    10    13    1
    17    13    15    1
    18    15    16   ar
    19    16    17   ar
    20    17    18   ar
    21    18    19   ar
    22     6     7   ar
    23     7     8   ar
    24     8     9    1
    25    26    31    1
    26    31    32   ar
    27    32    33   ar
    28    33    34   ar
    29    34    35   ar
    30    35    36   ar
    31    26    27    1
    32    27    28    1
    33    28    23    1
    34     8     2   ar
    35    36    31   ar
    36    19    15   ar
    37    22    29    1
    38    22    30    1
    39    13    14    1
@<TRIPOS>MOLECULE
*****
 36 39 0 0 0
SMALL
GASTEIGER

@<TRIPOS>ATOM
      1 O          61.1052   88.7766   12.1400 O.3     1  UNL1       -0.4745
      2 C          62.2551   89.7369   12.0660 C.ar    1  UNL1        0.1513
      3 C          63.2184   89.8430   13.2109 C.ar    1  UNL1        0.0688
      4 C          64.3683   90.8033   13.1369 C.ar    1  UNL1        0.1620
      5 F          65.3317   90.9094   14.2819 F       1  UNL1       -0.2026
      6 C          64.5551   91.6574   11.9181 C.ar    1  UNL1        0.1535
      7 C          63.5917   91.5512   10.7731 C.ar    1  UNL1        0.0369
      8 C          62.4418   90.5910   10.8471 C.ar    1  UNL1        0.0930
      9 CL         61.4785   90.4848    9.7022 Cl      1  UNL1       -0.0790
     10 S          65.7050   92.6176   11.8441 S.O2    1  UNL1        0.0773
     11 O          66.0278   92.1249   10.4645 O.2     1  UNL1       -0.1498
     12 O          65.3823   93.1103   13.2236 O.2     1  UNL1       -0.1498
     13 N          66.8550   93.5779   11.7701 N.pl3   1  UNL1       -0.1925
     14 H          67.5907   93.5160   12.4214 H       1  UNL1        0.1758
     15 C          66.8839   94.6325   10.7039 C.ar    1  UNL1        0.1977
     16 N          67.8575   94.7086    9.5652 N.ar    1  UNL1       -0.1997
     17 C          67.5197   95.9192    8.7466 C.ar    1  UNL1        0.2082
     18 N          66.3374   96.5914    9.3792 N.ar    1  UNL1       -0.1840
     19 S          65.9445   95.7961   10.5889 S.2     1  UNL1        0.0508
     20 C          61.0415   87.6088   11.2007 C.3     1  UNL1        0.2058
     21 C          61.5431   86.2651   11.6396 C.3     1  UNL1        0.0514
     22 N          62.7589   84.7085    6.2599 N.3     1  UNL1       -0.3222
     23 C          62.6103   84.9401    7.7345 C.3     1  UNL1        0.0508
     24 C          61.6517   85.9781    8.2378 C.3     1  UNL1        0.0158
     25 C          61.5032   86.2097    9.7124 C.3     1  UNL1        0.0055
     26 C          62.3133   85.4031   10.6836 C.3     1  UNL1        0.0226
     27 C          63.2719   84.3651   10.1802 C.3     1  UNL1        0.0055
     28 C          63.4204   84.1335    8.7057 C.3     1  UNL1        0.0158
     29 H          62.1379   85.3388    5.7525 H       1  UNL1        0.1188
     30 H          62.5155   83.7424    6.0412 H       1  UNL1        0.1188
     31 C          62.8559   84.8959   11.9868 C.ar    1  UNL1       -0.0227
     32 C          62.7545   83.4380   12.3249 C.ar    1  UNL1       -0.0043
     33 C          63.2971   82.9308   13.6281 C.ar    1  UNL1       -0.0003
     34 C          63.9411   83.8816   14.5932 C.ar    1  UNL1       -0.0000
     35 C          64.0425   85.3394   14.2551 C.ar    1  UNL1       -0.0003
     36 C          63.4999   85.8466   12.9519 C.ar    1  UNL1       -0.0043
@<TRIPOS>BOND
     1    23    22    1
     2    23    24    1
     3    24    25    1
     4    25    26    1
     5    26    21    1
     6    21    20    1
     7    20     1    1
     8     1     2    1
     9     2     3   ar
    10     3     4   ar
    11     4     5    1
    12     4     6   ar
    13     6    10    1
    14    10    11    2
    15    10    12    2
    16    10    13    1
    17    13    15    1
    18    15    16   ar
    19    16    17   ar
    20    17    18   ar
    21    18    19   ar
    22     6     7   ar
    23     7     8   ar
    24     8     9    1
    25    26    31    1
    26    31    32   ar
    27    32    33   ar
    28    33    34   ar
    29    34    35   ar
    30    35    36   ar
    31    26    27    1
    32    27    28    1
    33    28    23    1
    34     8     2   ar
    35    36    31   ar
    36    19    15   ar
    37    22    29    1
    38    22    30    1
    39    13    14    1
@<TRIPOS>MOLECULE
*****
 36 39 0 0 0
SMALL
GASTEIGER

@<TRIPOS>ATOM
      1 O          64.0063   89.1494   15.7954 O.3     1  UNL1       -0.4745
      2 C          63.7647   87.6812   15.6065 C.ar    1  UNL1        0.1513
      3 C          64.1354   87.0205   14.3119 C.ar    1  UNL1        0.0688
      4 C          63.8938   85.5522   14.1231 C.ar    1  UNL1        0.1620
      5 F          64.2646   84.8915   12.8284 F       1  UNL1       -0.2026
      6 C          63.2816   84.7445   15.2288 C.ar    1  UNL1        0.1535
      7 C          62.9108   85.4052   16.5235 C.ar    1  UNL1        0.0369
      8 C          63.1524   86.8735   16.7124 C.ar    1  UNL1        0.0930
      9 CL         62.7817   87.5342   18.0070 Cl      1  UNL1       -0.0790
     10 S          63.0400   83.2762   15.0400 S.O2    1  UNL1        0.0773
     11 O          61.6343   83.5637   14.6024 O.2     1  UNL1       -0.1498
     12 O          64.4456   82.9887   15.4776 O.2     1  UNL1       -0.1498
     13 N          62.7984   81.8078   14.8512 N.pl3   1  UNL1       -0.1925
     14 H          62.6158   81.2347   15.6306 H       1  UNL1        0.1758
     15 C          62.8350   81.2128   13.4748 C.ar    1  UNL1        0.1977
     16 N          63.2785   81.9114   12.2237 N.ar    1  UNL1       -0.1997
     17 C          63.1522   80.9451   11.0834 C.ar    1  UNL1        0.2082
     18 N          62.6305   79.6492   11.6297 N.ar    1  UNL1       -0.1840
     19 S          62.4344   79.8147   13.1076 S.2     1  UNL1        0.0508
     20 C          64.4327   89.9951   14.6322 C.3     1  UNL1        0.2058
     21 C          63.4927   90.2227   13.4858 C.3     1  UNL1        0.0514
     22 N          66.9069   94.2312   11.2235 N.3     1  UNL1       -0.3222
     23 C          65.9170   93.1628   11.5822 C.3     1  UNL1        0.0508
     24 C          65.8448   92.6492   12.9896 C.3     1  UNL1        0.0158
     25 C          64.8549   91.5808   13.3482 C.3     1  UNL1        0.0055
     26 C          63.9373   91.0259   12.2994 C.3     1  UNL1        0.0226
     27 C          64.0095   91.5395   10.8920 C.3     1  UNL1        0.0055
     28 C          64.9994   92.6079   10.5334 C.3     1  UNL1        0.0158
     29 H          67.4442   94.4886   12.0514 H       1  UNL1        0.1188
     30 H          66.4108   95.0502   10.8720 H       1  UNL1        0.1188
     31 C          62.8652   90.1921   11.6626 C.ar    1  UNL1       -0.0227
     32 C          63.0019   88.6989   11.6210 C.ar    1  UNL1       -0.0043
     33 C          61.9298   87.8651   10.9842 C.ar    1  UNL1       -0.0003
     34 C          60.7212   88.5246   10.3889 C.ar    1  UNL1       -0.0000
     35 C          60.5845   90.0178   10.4305 C.ar    1  UNL1       -0.0003
     36 C          61.6566   90.8515   11.0673 C.ar    1  UNL1       -0.0043
@<TRIPOS>BOND
     1    23    22    1
     2    23    24    1
     3    24    25    1
     4    25    26    1
     5    26    21    1
     6    21    20    1
     7    20     1    1
     8     1     2    1
     9     2     3   ar
    10     3     4   ar
    11     4     5    1
    12     4     6   ar
    13     6    10    1
    14    10    11    2
    15    10    12    2
    16    10    13    1
    17    13    15    1
    18    15    16   ar
    19    16    17   ar
    20    17    18   ar
    21    18    19   ar
    22     6     7   ar
    23     7     8   ar
    24     8     9    1
    25    26    31    1
    26    31    32   ar
    27    32    33   ar
    28    33    34   ar
    29    34    35   ar
    30    35    36   ar
    31    26    27    1
    32    27    28    1
    33    28    23    1
    34     8     2   ar
    35    36    31   ar
    36    19    15   ar
    37    22    29    1
    38    22    30    1
    39    13    14    1
@<TRIPOS>MOLECULE
*****
 36 39 0 0 0
SMALL
GASTEIGER

@<TRIPOS>ATOM
      1 O          62.4497   88.5530   12.6912 O.3     1  UNL1       -0.4745
      2 C          63.3266   89.7539   12.4948 C.ar    1  UNL1        0.1513
      3 C          63.2117   90.5695   11.2411 C.ar    1  UNL1        0.0688
      4 C          64.0886   91.7704   11.0447 C.ar    1  UNL1        0.1620
      5 F          63.9738   92.5860    9.7909 F       1  UNL1       -0.2026
      6 C          65.0804   92.1560   12.1019 C.ar    1  UNL1        0.1535
      7 C          65.1952   91.3404   13.3556 C.ar    1  UNL1        0.0369
      8 C          64.3184   90.1394   13.5520 C.ar    1  UNL1        0.0930
      9 CL         64.4332   89.3239   14.8057 Cl      1  UNL1       -0.0790
     10 S          65.9573   93.3570   11.9055 S.O2    1  UNL1        0.0773
     11 O          65.6725   93.7950   13.3116 O.2     1  UNL1       -0.1498
     12 O          66.2421   92.9191   10.4994 O.2     1  UNL1       -0.1498
     13 N          66.8342   94.5580   11.7091 N.pl3   1  UNL1       -0.1925
     14 H          67.4813   94.8143   12.4054 H       1  UNL1        0.1758
     15 C          66.7252   95.3686   10.4517 C.ar    1  UNL1        0.1977
     16 N          67.7587   95.4585    9.3682 N.ar    1  UNL1       -0.1997
     17 C          67.2359   96.3770    8.3039 C.ar    1  UNL1        0.2082
     18 N          65.8792   96.8548    8.7294 N.ar    1  UNL1       -0.1840
     19 S          65.5637   96.2316   10.0568 S.2     1  UNL1        0.0508
     20 C          62.9693   87.1837   12.3669 C.3     1  UNL1        0.2058
     21 C          62.0471   86.1471   11.7970 C.3     1  UNL1        0.0514
     22 N          63.9635   81.2940   14.1670 N.3     1  UNL1       -0.3222
     23 C          63.4801   82.4391   13.3273 C.3     1  UNL1        0.0508
     24 C          63.1092   83.7401   13.9751 C.3     1  UNL1        0.0158
     25 C          62.6258   84.8851   13.1353 C.3     1  UNL1        0.0055
     26 C          62.5133   84.7292   11.6478 C.3     1  UNL1        0.0226
     27 C          62.8842   83.4281   10.9999 C.3     1  UNL1        0.0055
     28 C          63.3676   82.2831   11.8397 C.3     1  UNL1        0.0158
     29 H          63.9774   81.5738   15.1478 H       1  UNL1        0.1188
     30 H          64.9049   81.0318   13.8748 H       1  UNL1        0.1188
     31 C          62.2389   85.0656   10.2119 C.ar    1  UNL1       -0.0227
     32 C          63.1801   84.6020    9.1399 C.ar    1  UNL1       -0.0043
     33 C          62.9056   84.9385    7.7041 C.ar    1  UNL1       -0.0003
     34 C          61.6900   85.7385    7.3404 C.ar    1  UNL1       -0.0000
     35 C          60.7488   86.2020    8.4124 C.ar    1  UNL1       -0.0003
     36 C          61.0233   85.8656    9.8482 C.ar    1  UNL1       -0.0043
@<TRIPOS>BOND
     1    23    22    1
     2    23    24    1
     3    24    25    1
     4    25    26    1
     5    26    21    1
     6    21    20    1
     7    20     1    1
     8     1     2    1
     9     2     3   ar
    10     3     4   ar
    11     4     5    1
    12     4     6   ar
    13     6    10    1
    14    10    11    2
    15    10    12    2
    16    10    13    1
    17    13    15    1
    18    15    16   ar
    19    16    17   ar
    20    17    18   ar
    21    18    19   ar
    22     6     7   ar
    23     7     8   ar
    24     8     9    1
    25    26    31    1
    26    31    32   ar
    27    32    33   ar
    28    33    34   ar
    29    34    35   ar
    30    35    36   ar
    31    26    27    1
    32    27    28    1
    33    28    23    1
    34     8     2   ar
    35    36    31   ar
    36    19    15   ar
    37    22    29    1
    38    22    30    1
    39    13    14    1
@<TRIPOS>MOLECULE
*****
 36 39 0 0 0
SMALL
GASTEIGER

@<TRIPOS>ATOM
      1 O          61.6781   89.0004   12.7932 O.3     1  UNL1       -0.4745
      2 C          62.7827   89.9761   12.5145 C.ar    1  UNL1        0.1513
      3 C          62.7937   90.7497   11.2294 C.ar    1  UNL1        0.0688
      4 C          63.8984   91.7253   10.9507 C.ar    1  UNL1        0.1620
      5 F          63.9093   92.4989    9.6656 F       1  UNL1       -0.2026
      6 C          64.9921   91.9275   11.9571 C.ar    1  UNL1        0.1535
      7 C          64.9812   91.1539   13.2423 C.ar    1  UNL1        0.0369
      8 C          63.8765   90.1783   13.5209 C.ar    1  UNL1        0.0930
      9 CL         63.8655   89.4047   14.8060 Cl      1  UNL1       -0.0790
     10 S          66.0968   92.9032   11.6784 S.O2    1  UNL1        0.0773
     11 O          65.6536   93.7378   12.8434 O.2     1  UNL1       -0.1498
     12 O          66.5400   92.0687   10.5135 O.2     1  UNL1       -0.1498
     13 N          67.2015   93.8789   11.3998 N.pl3   1  UNL1       -0.1925
     14 H          68.0220   93.8622   11.9437 H       1  UNL1        0.1758
     15 C          67.0561   94.8802   10.2924 C.ar    1  UNL1        0.1977
     16 N          66.2941   96.1702   10.3646 N.ar    1  UNL1       -0.1997
     17 C          66.4141   96.8546    9.0352 C.ar    1  UNL1        0.2082
     18 N          67.2502   95.9875    8.1414 N.ar    1  UNL1       -0.1840
     19 S          67.6470   94.7673    8.9184 S.2     1  UNL1        0.0508
     20 C          61.8267   87.5636   12.3890 C.3     1  UNL1        0.2058
     21 C          61.0719   87.0355   11.2053 C.3     1  UNL1        0.0514
     22 N          64.7121   82.7453   10.1168 N.3     1  UNL1       -0.3222
     23 C          63.7272   83.8761   10.1506 C.3     1  UNL1        0.0508
     24 C          63.3276   84.4837   11.4625 C.3     1  UNL1        0.0158
     25 C          62.3427   85.6146   11.4963 C.3     1  UNL1        0.0055
     26 C          61.7575   86.1379   10.2182 C.3     1  UNL1        0.0226
     27 C          62.1571   85.5303    8.9063 C.3     1  UNL1        0.0055
     28 C          63.1420   84.3995    8.8725 C.3     1  UNL1        0.0158
     29 H          65.0040   82.5201   11.0679 H       1  UNL1        0.1188
     30 H          65.5264   83.0198    9.5673 H       1  UNL1        0.1188
     31 C          60.9341   86.9729    9.2829 C.ar    1  UNL1       -0.0227
     32 C          61.0700   88.4667    9.2942 C.ar    1  UNL1       -0.0043
     33 C          60.2466   89.3018    8.3588 C.ar    1  UNL1       -0.0003
     34 C          59.2875   88.6430    7.4122 C.ar    1  UNL1       -0.0000
     35 C          59.1517   87.1492    7.4009 C.ar    1  UNL1       -0.0003
     36 C          59.9750   86.3142    8.3363 C.ar    1  UNL1       -0.0043
@<TRIPOS>BOND
     1    23    22    1
     2    23    24    1
     3    24    25    1
     4    25    26    1
     5    26    21    1
     6    21    20    1
     7    20     1    1
     8     1     2    1
     9     2     3   ar
    10     3     4   ar
    11     4     5    1
    12     4     6   ar
    13     6    10    1
    14    10    11    2
    15    10    12    2
    16    10    13    1
    17    13    15    1
    18    15    16   ar
    19    16    17   ar
    20    17    18   ar
    21    18    19   ar
    22     6     7   ar
    23     7     8   ar
    24     8     9    1
    25    26    31    1
    26    31    32   ar
    27    32    33   ar
    28    33    34   ar
    29    34    35   ar
    30    35    36   ar
    31    26    27    1
    32    27    28    1
    33    28    23    1
    34     8     2   ar
    35    36    31   ar
    36    19    15   ar
    37    22    29    1
    38    22    30    1
    39    13    14    1
@<TRIPOS>MOLECULE
*****
 36 39 0 0 0
SMALL
GASTEIGER

@<TRIPOS>ATOM
      1 O          63.1744   89.5480   16.7680 O.3     1  UNL1       -0.4745
      2 C          63.3142   88.1249   16.3151 C.ar    1  UNL1        0.1513
      3 C          63.7489   87.8238   14.9114 C.ar    1  UNL1        0.0688
      4 C          63.8887   86.4007   14.4585 C.ar    1  UNL1        0.1620
      5 F          64.3234   86.0996   13.0547 F       1  UNL1       -0.2026
      6 C          63.5939   85.2786   15.4093 C.ar    1  UNL1        0.1535
      7 C          63.1593   85.5797   16.8131 C.ar    1  UNL1        0.0369
      8 C          63.0194   87.0028   17.2659 C.ar    1  UNL1        0.0930
      9 CL         62.5848   87.3039   18.6697 Cl      1  UNL1       -0.0790
     10 S          63.7338   83.8555   14.9564 S.O2    1  UNL1        0.0773
     11 O          65.2168   84.0418   14.8288 O.2     1  UNL1       -0.1498
     12 O          62.2509   83.6691   15.0840 O.2     1  UNL1       -0.1498
     13 N          63.8737   82.4323   14.5035 N.pl3   1  UNL1       -0.1925
     14 H          64.0812   81.7258   15.1571 H       1  UNL1        0.1758
     15 C          63.6973   82.0856   13.0549 C.ar    1  UNL1        0.1977
     16 N          64.3029   82.8165   11.8933 N.ar    1  UNL1       -0.1997
     17 C          63.8644   82.1298   10.6339 C.ar    1  UNL1        0.2082
     18 N          62.9878   80.9745   11.0170 N.ar    1  UNL1       -0.1840
     19 S          62.8846   80.9472   12.5133 S.2     1  UNL1        0.0508
     20 C          63.9262   90.6371   16.0619 C.3     1  UNL1        0.2058
     21 C          63.9045   90.7142   14.5641 C.3     1  UNL1        0.0514
     22 N          69.1589   93.0008   14.6347 N.3     1  UNL1       -0.3222
     23 C          67.8043   92.4160   14.3642 C.3     1  UNL1        0.0508
     24 C          66.9209   92.0101   15.5064 C.3     1  UNL1        0.0158
     25 C          65.5663   91.4253   15.2359 C.3     1  UNL1        0.0055
     26 C          65.0952   91.2464   13.8231 C.3     1  UNL1        0.0226
     27 C          65.9786   91.6523   12.6809 C.3     1  UNL1        0.0055
     28 C          67.3332   92.2371   12.9514 C.3     1  UNL1        0.0158
     29 H          69.3133   93.0493   15.6418 H       1  UNL1        0.1188
     30 H          69.2098   93.9388   14.2373 H       1  UNL1        0.1188
     31 C          64.2105   90.8827   12.6676 C.ar    1  UNL1       -0.0227
     32 C          63.3640   89.6461   12.7314 C.ar    1  UNL1       -0.0043
     33 C          62.4793   89.2823   11.5760 C.ar    1  UNL1       -0.0003
     34 C          62.4412   90.1553   10.3568 C.ar    1  UNL1       -0.0000
     35 C          63.2877   91.3919   10.2929 C.ar    1  UNL1       -0.0003
     36 C          64.1724   91.7556   11.4484 C.ar    1  UNL1       -0.0043
@<TRIPOS>BOND
     1    23    22    1
     2    23    24    1
     3    24    25    1
     4    25    26    1
     5    26    21    1
     6    21    20    1
     7    20     1    1
     8     1     2    1
     9     2     3   ar
    10     3     4   ar
    11     4     5    1
    12     4     6   ar
    13     6    10    1
    14    10    11    2
    15    10    12    2
    16    10    13    1
    17    13    15    1
    18    15    16   ar
    19    16    17   ar
    20    17    18   ar
    21    18    19   ar
    22     6     7   ar
    23     7     8   ar
    24     8     9    1
    25    26    31    1
    26    31    32   ar
    27    32    33   ar
    28    33    34   ar
    29    34    35   ar
    30    35    36   ar
    31    26    27    1
    32    27    28    1
    33    28    23    1
    34     8     2   ar
    35    36    31   ar
    36    19    15   ar
    37    22    29    1
    38    22    30    1
    39    13    14    1
