@<TRIPOS>MOLECULE
*****
 37 40 0 0 0
SMALL
GASTEIGER

@<TRIPOS>ATOM
      1 C          65.2174   91.8670   11.1586 C.ar    1  UNL1        0.0383
      2 C          65.7520   91.7731   12.5570 C.ar    1  UNL1        0.0433
      3 N          64.7208   91.0861   13.4023 N.ar    1  UNL1       -0.3260
      4 C          63.5488   90.7553   12.5263 C.ar    1  UNL1        0.0606
      5 C          62.2419   90.0770   12.8123 C.ar    1  UNL1        0.0203
      6 C          61.2419   89.8814   11.7115 C.ar    1  UNL1        0.0384
      7 C          61.5489   90.3641   10.3248 C.ar    1  UNL1        0.1392
      8 C          62.8558   91.0423   10.0389 C.ar    1  UNL1        0.0389
      9 C          63.8558   91.2380   11.1397 C.ar    1  UNL1        0.0256
     10 S          65.9209   92.4820    9.9852 S.3     1  UNL1       -0.1142
     11 C          65.2497   94.4109   10.5584 C.3     1  UNL1        0.0112
     12 C          66.5614   93.8318   10.1178 C.3     1  UNL1        0.0434
     13 C          67.8731   93.2526    9.6771 C.3     1  UNL1        0.0112
     14 C          67.2019   95.1816   10.2503 C.3     1  UNL1        0.0112
     15 C          67.0839   92.2777   13.0274 C.3     1  UNL1        0.0495
     16 C          67.2325   92.8179   14.4188 C.3     1  UNL1        0.0376
     17 C          67.9824   91.5819   14.8187 C.3     1  UNL1        0.0059
     18 C          66.4825   94.0539   14.0190 C.3     1  UNL1        0.0059
     19 C          67.3810   93.3581   15.8103 C.2     1  UNL1        0.0500
     20 O          66.3980   92.9696   16.8746 O.co2   1  UNL1       -0.5492
     21 O          68.5126   94.2868   16.1375 O.co2   1  UNL1       -0.5492
     22 C          64.8404   90.7830   14.8664 C.3     1  UNL1        0.1324
     23 C          64.3004   89.4942   15.4121 C.ar    1  UNL1        0.0004
     24 C          64.6452   88.1949   14.7466 C.ar    1  UNL1       -0.0015
     25 C          64.1053   86.9063   15.2922 C.ar    1  UNL1        0.0111
     26 C          63.2206   86.9169   16.5034 C.ar    1  UNL1        0.0577
     27 CL         62.6807   85.6282   17.0491 Cl      1  UNL1       -0.0822
     28 C          62.8758   88.2161   17.1690 C.ar    1  UNL1        0.0111
     29 C          63.4157   89.5048   16.6234 C.ar    1  UNL1       -0.0015
     30 O          60.5488   90.1684    9.2241 O.3     1  UNL1       -0.4690
     31 C          59.8312   88.8583    9.0868 C.3     1  UNL1        0.2508
     32 C          60.5847   87.6308    8.6678 C.ar    1  UNL1        0.1026
     33 C          61.9034   87.3063    9.3048 C.ar    1  UNL1        0.0185
     34 C          62.6568   86.0788    8.8858 C.ar    1  UNL1        0.0029
     35 C          62.0915   85.1758    7.8299 C.ar    1  UNL1        0.0207
     36 C          60.7728   85.5002    7.1929 C.ar    1  UNL1        0.0986
     37 N          60.0194   86.7277    7.6119 N.ar    1  UNL1       -0.2445
@<TRIPOS>UNITY_ATOM_ATTR
20 1
charge -1
@<TRIPOS>BOND
     1    11    12    1
     2    12    13    1
     3    12    14    1
     4    12    10    1
     5    10     1    1
     6     1     2   ar
     7     2    15    1
     8    15    16    1
     9    16    17    1
    10    16    18    1
    11    16    19    1
    12    19    20   ar
    13    19    21   ar
    14     2     3   ar
    15     3    22    1
    16    22    23    1
    17    23    24   ar
    18    24    25   ar
    19    25    26   ar
    20    26    27    1
    21    26    28   ar
    22    28    29   ar
    23     3     4   ar
    24     4     5   ar
    25     5     6   ar
    26     6     7   ar
    27     7    30    1
    28    30    31    1
    29    31    32    1
    30    32    33   ar
    31    33    34   ar
    32    34    35   ar
    33    35    36   ar
    34    36    37   ar
    35     7     8   ar
    36     8     9   ar
    37     9     1   ar
    38    29    23   ar
    39     9     4   ar
    40    37    32   ar
@<TRIPOS>MOLECULE
*****
 37 40 0 0 0
SMALL
GASTEIGER

@<TRIPOS>ATOM
      1 C          64.0621   90.5258   14.1866 C.ar    1  UNL1        0.0383
      2 C          65.4219   91.1588   14.1786 C.ar    1  UNL1        0.0433
      3 N          65.6718   91.7030   12.8033 N.ar    1  UNL1       -0.3260
      4 C          64.4663   91.4063   11.9614 C.ar    1  UNL1        0.0606
      5 C          64.1461   91.7046   10.5267 C.ar    1  UNL1        0.0203
      6 C          62.8310   91.2754    9.9469 C.ar    1  UNL1        0.0384
      7 C          61.8361   90.5479   10.8018 C.ar    1  UNL1        0.1392
      8 C          62.1563   90.2496   12.2365 C.ar    1  UNL1        0.0389
      9 C          63.4715   90.6788   12.8163 C.ar    1  UNL1        0.0256
     10 S          63.4076   89.8573   15.3591 S.3     1  UNL1       -0.1142
     11 C          64.3052   88.2623   14.2866 C.3     1  UNL1        0.0112
     12 C          63.6684   88.4066   15.6370 C.3     1  UNL1        0.0434
     13 C          63.0316   88.5508   16.9875 C.3     1  UNL1        0.0112
     14 C          63.9292   86.9558   15.9150 C.3     1  UNL1        0.0112
     15 C          66.3661   91.2344   15.3417 C.3     1  UNL1        0.0495
     16 C          67.4422   92.2791   15.3676 C.3     1  UNL1        0.0376
     17 C          66.4072   93.3393   15.6014 C.3     1  UNL1        0.0059
     18 C          68.4771   91.2189   15.1337 C.3     1  UNL1        0.0059
     19 C          68.5182   93.3239   15.3934 C.2     1  UNL1        0.0500
     20 O          69.7750   93.1259   14.5990 O.co2   1  UNL1       -0.5492
     21 O          68.3374   94.5666   16.2137 O.co2   1  UNL1       -0.5492
     22 C          66.9097   92.4183   12.3496 C.3     1  UNL1        0.1324
     23 C          66.8096   93.5262   11.3433 C.ar    1  UNL1        0.0004
     24 C          66.1356   94.8148   11.7110 C.ar    1  UNL1       -0.0015
     25 C          66.0354   95.9226   10.7047 C.ar    1  UNL1        0.0111
     26 C          66.6092   95.7418    9.3307 C.ar    1  UNL1        0.0577
     27 CL         66.5091   96.8496    8.3243 Cl      1  UNL1       -0.0822
     28 C          67.2832   94.4532    8.9629 C.ar    1  UNL1        0.0111
     29 C          67.3834   93.3453    9.9692 C.ar    1  UNL1       -0.0015
     30 O          60.5209   90.1187   10.2220 O.3     1  UNL1       -0.4690
     31 C          59.9804   88.7516   10.5198 C.3     1  UNL1        0.2508
     32 C          60.8675   87.5492   10.3877 C.ar    1  UNL1        0.1026
     33 C          61.4341   87.1785    9.0493 C.ar    1  UNL1        0.0185
     34 C          62.3212   85.9762    8.9173 C.ar    1  UNL1        0.0029
     35 C          62.6416   85.1445   10.1238 C.ar    1  UNL1        0.0207
     36 C          62.0750   85.5151   11.4623 C.ar    1  UNL1        0.0986
     37 N          61.1879   86.7175   11.5942 N.ar    1  UNL1       -0.2445
@<TRIPOS>UNITY_ATOM_ATTR
20 1
charge -1
@<TRIPOS>BOND
     1    11    12    1
     2    12    13    1
     3    12    14    1
     4    12    10    1
     5    10     1    1
     6     1     2   ar
     7     2    15    1
     8    15    16    1
     9    16    17    1
    10    16    18    1
    11    16    19    1
    12    19    20   ar
    13    19    21   ar
    14     2     3   ar
    15     3    22    1
    16    22    23    1
    17    23    24   ar
    18    24    25   ar
    19    25    26   ar
    20    26    27    1
    21    26    28   ar
    22    28    29   ar
    23     3     4   ar
    24     4     5   ar
    25     5     6   ar
    26     6     7   ar
    27     7    30    1
    28    30    31    1
    29    31    32    1
    30    32    33   ar
    31    33    34   ar
    32    34    35   ar
    33    35    36   ar
    34    36    37   ar
    35     7     8   ar
    36     8     9   ar
    37     9     1   ar
    38    29    23   ar
    39     9     4   ar
    40    37    32   ar
@<TRIPOS>MOLECULE
*****
 37 40 0 0 0
SMALL
GASTEIGER

@<TRIPOS>ATOM
      1 C          64.4979   89.4753   14.1201 C.ar    1  UNL1        0.0383
      2 C          65.1754   90.7998   14.3114 C.ar    1  UNL1        0.0433
      3 N          64.8281   91.6714   13.1411 N.ar    1  UNL1       -0.3260
      4 C          63.9358   90.8856   12.2265 C.ar    1  UNL1        0.0606
      5 C          63.2829   91.2307   10.9209 C.ar    1  UNL1        0.0203
      6 C          62.4258   90.2184   10.2204 C.ar    1  UNL1        0.0384
      7 C          62.2217   88.8611   10.8255 C.ar    1  UNL1        0.1392
      8 C          62.8747   88.5161   12.1311 C.ar    1  UNL1        0.0389
      9 C          63.7318   89.5284   12.8316 C.ar    1  UNL1        0.0256
     10 S          64.5732   88.3035   15.0535 S.3     1  UNL1       -0.1142
     11 C          63.7158   86.6003   15.9830 C.3     1  UNL1        0.0112
     12 C          63.4898   88.0808   16.0667 C.3     1  UNL1        0.0434
     13 C          63.2638   89.5614   16.1504 C.3     1  UNL1        0.0112
     14 C          62.4065   87.8582   17.0799 C.3     1  UNL1        0.0112
     15 C          66.0473   91.1851   15.4696 C.3     1  UNL1        0.0495
     16 C          67.2969   91.9810   15.2356 C.3     1  UNL1        0.0376
     17 C          67.7362   90.9871   14.2016 C.3     1  UNL1        0.0059
     18 C          66.8576   92.9749   16.2696 C.3     1  UNL1        0.0059
     19 C          68.5467   92.7769   15.0015 C.2     1  UNL1        0.0500
     20 O          68.8248   93.9969   15.8287 O.co2   1  UNL1       -0.5492
     21 O          69.5181   92.3529   13.9402 O.co2   1  UNL1       -0.5492
     22 C          65.2916   93.0814   12.9235 C.3     1  UNL1        0.1324
     23 C          66.0029   93.4497   11.6553 C.ar    1  UNL1        0.0004
     24 C          66.9519   92.4783   11.0183 C.ar    1  UNL1       -0.0015
     25 C          67.6632   92.8466    9.7501 C.ar    1  UNL1        0.0111
     26 C          67.4256   94.1864    9.1189 C.ar    1  UNL1        0.0577
     27 CL         68.1369   94.5548    7.8507 Cl      1  UNL1       -0.0822
     28 C          66.4766   95.1579    9.7559 C.ar    1  UNL1        0.0111
     29 C          65.7653   94.7896   11.0241 C.ar    1  UNL1       -0.0015
     30 O          61.3646   87.8488   10.1249 O.3     1  UNL1       -0.4690
     31 C          62.0013   86.7621    9.3104 C.3     1  UNL1        0.2508
     32 C          62.5028   85.5177    9.9814 C.ar    1  UNL1        0.1026
     33 C          63.3844   84.5642    9.2309 C.ar    1  UNL1        0.0185
     34 C          63.8858   83.3199    9.9019 C.ar    1  UNL1        0.0029
     35 C          63.5055   83.0291   11.3234 C.ar    1  UNL1        0.0207
     36 C          62.6238   83.9826   12.0739 C.ar    1  UNL1        0.0986
     37 N          62.1224   85.2269   11.4029 N.ar    1  UNL1       -0.2445
@<TRIPOS>UNITY_ATOM_ATTR
20 1
charge -1
@<TRIPOS>BOND
     1    11    12    1
     2    12    13    1
     3    12    14    1
     4    12    10    1
     5    10     1    1
     6     1     2   ar
     7     2    15    1
     8    15    16    1
     9    16    17    1
    10    16    18    1
    11    16    19    1
    12    19    20   ar
    13    19    21   ar
    14     2     3   ar
    15     3    22    1
    16    22    23    1
    17    23    24   ar
    18    24    25   ar
    19    25    26   ar
    20    26    27    1
    21    26    28   ar
    22    28    29   ar
    23     3     4   ar
    24     4     5   ar
    25     5     6   ar
    26     6     7   ar
    27     7    30    1
    28    30    31    1
    29    31    32    1
    30    32    33   ar
    31    33    34   ar
    32    34    35   ar
    33    35    36   ar
    34    36    37   ar
    35     7     8   ar
    36     8     9   ar
    37     9     1   ar
    38    29    23   ar
    39     9     4   ar
    40    37    32   ar
@<TRIPOS>MOLECULE
*****
 37 40 0 0 0
SMALL
GASTEIGER

@<TRIPOS>ATOM
      1 C          62.3766   88.0387   11.4618 C.ar    1  UNL1        0.0383
      2 C          62.4513   86.5572   11.6844 C.ar    1  UNL1        0.0433
      3 N          63.3284   86.3113   12.8761 N.ar    1  UNL1       -0.3260
      4 C          63.7958   87.6408   13.3900 C.ar    1  UNL1        0.0606
      5 C          64.6810   88.0172   14.5409 C.ar    1  UNL1        0.0203
      6 C          64.9779   89.4612   14.8177 C.ar    1  UNL1        0.0384
      7 C          64.3896   90.5288   13.9436 C.ar    1  UNL1        0.1392
      8 C          63.5044   90.1524   12.7926 C.ar    1  UNL1        0.0389
      9 C          63.2075   88.7084   12.5159 C.ar    1  UNL1        0.0256
     10 S          61.6062   88.7293   10.3757 S.3     1  UNL1       -0.1142
     11 C          59.7640   88.7281   11.4276 C.3     1  UNL1        0.0112
     12 C          60.5843   89.7699   10.7263 C.3     1  UNL1        0.0434
     13 C          61.4046   90.8117   10.0249 C.3     1  UNL1        0.0112
     14 C          59.5625   90.8105   11.0768 C.3     1  UNL1        0.0112
     15 C          61.7687   85.5062   10.8601 C.3     1  UNL1        0.0495
     16 C          61.6097   85.6990    9.3811 C.3     1  UNL1        0.0376
     17 C          60.1882   86.1297    9.5901 C.3     1  UNL1        0.0059
     18 C          63.0313   85.2684    9.1721 C.3     1  UNL1        0.0059
     19 C          61.4507   85.8919    7.9020 C.2     1  UNL1        0.0500
     20 O          62.3204   85.1278    6.9482 O.co2   1  UNL1       -0.5492
     21 O          60.4220   86.8489    7.3768 O.co2   1  UNL1       -0.5492
     22 C          63.6770   84.9712   13.4528 C.3     1  UNL1        0.1324
     23 C          63.5250   83.7334   12.6191 C.ar    1  UNL1        0.0004
     24 C          62.4493   82.7391   12.9419 C.ar    1  UNL1       -0.0015
     25 C          62.2973   81.5014   12.1082 C.ar    1  UNL1        0.0111
     26 C          63.2211   81.2580   10.9518 C.ar    1  UNL1        0.0577
     27 CL         63.0692   80.0203   10.1181 Cl      1  UNL1       -0.0822
     28 C          64.2968   82.2523   10.6290 C.ar    1  UNL1        0.0111
     29 C          64.4488   83.4900   11.4626 C.ar    1  UNL1       -0.0015
     30 O          64.6866   91.9728   14.2204 O.3     1  UNL1       -0.4690
     31 C          66.0524   92.5251   13.9385 C.3     1  UNL1        0.2508
     32 C          66.3378   93.1842   12.6216 C.ar    1  UNL1        0.1026
     33 C          66.8255   92.3656   11.4632 C.ar    1  UNL1        0.0185
     34 C          67.1108   93.0248   10.1464 C.ar    1  UNL1        0.0029
     35 C          66.9084   94.5026    9.9879 C.ar    1  UNL1        0.0207
     36 C          66.4207   95.3212   11.1463 C.ar    1  UNL1        0.0986
     37 N          66.1354   94.6621   12.4632 N.ar    1  UNL1       -0.2445
@<TRIPOS>UNITY_ATOM_ATTR
20 1
charge -1
@<TRIPOS>BOND
     1    11    12    1
     2    12    13    1
     3    12    14    1
     4    12    10    1
     5    10     1    1
     6     1     2   ar
     7     2    15    1
     8    15    16    1
     9    16    17    1
    10    16    18    1
    11    16    19    1
    12    19    20   ar
    13    19    21   ar
    14     2     3   ar
    15     3    22    1
    16    22    23    1
    17    23    24   ar
    18    24    25   ar
    19    25    26   ar
    20    26    27    1
    21    26    28   ar
    22    28    29   ar
    23     3     4   ar
    24     4     5   ar
    25     5     6   ar
    26     6     7   ar
    27     7    30    1
    28    30    31    1
    29    31    32    1
    30    32    33   ar
    31    33    34   ar
    32    34    35   ar
    33    35    36   ar
    34    36    37   ar
    35     7     8   ar
    36     8     9   ar
    37     9     1   ar
    38    29    23   ar
    39     9     4   ar
    40    37    32   ar
@<TRIPOS>MOLECULE
*****
 37 40 0 0 0
SMALL
GASTEIGER

@<TRIPOS>ATOM
      1 C          65.8753   91.6520   12.7829 C.ar    1  UNL1        0.0383
      2 C          65.3342   91.8722   11.4013 C.ar    1  UNL1        0.0433
      3 N          63.9420   91.3159   11.3547 N.ar    1  UNL1       -0.3260
      4 C          63.6226   90.7519   12.7075 C.ar    1  UNL1        0.0606
      5 C          62.3981   90.0761   13.2495 C.ar    1  UNL1        0.0203
      6 C          62.3685   89.6079   14.6742 C.ar    1  UNL1        0.0384
      7 C          63.5634   89.8157   15.5569 C.ar    1  UNL1        0.1392
      8 C          64.7878   90.4915   15.0149 C.ar    1  UNL1        0.0389
      9 C          64.8174   90.9597   13.5901 C.ar    1  UNL1        0.0256
     10 S          67.2354   92.0537   13.2715 S.3     1  UNL1       -0.1142
     11 C          66.6191   93.9013   14.1119 C.3     1  UNL1        0.0112
     12 C          67.3870   92.7130   14.6102 C.3     1  UNL1        0.0434
     13 C          68.1549   91.5247   15.1086 C.3     1  UNL1        0.0112
     14 C          67.5386   93.3724   15.9489 C.3     1  UNL1        0.0112
     15 C          66.0583   92.5327   10.2658 C.3     1  UNL1        0.0495
     16 C          66.4253   93.9845   10.3535 C.3     1  UNL1        0.0376
     17 C          65.0497   94.3016   10.8605 C.3     1  UNL1        0.0059
     18 C          67.8008   93.6674    9.8464 C.3     1  UNL1        0.0059
     19 C          66.7922   95.4363   10.4412 C.2     1  UNL1        0.0500
     20 O          67.6918   96.0463    9.4075 O.co2   1  UNL1       -0.5492
     21 O          66.2596   96.2781   11.5627 O.co2   1  UNL1       -0.5492
     22 C          63.0293   91.3225   10.1643 C.3     1  UNL1        0.1324
     23 C          62.2462   90.0922    9.8128 C.ar    1  UNL1        0.0004
     24 C          62.8699   88.7368    9.9669 C.ar    1  UNL1       -0.0015
     25 C          62.0870   87.5066    9.6155 C.ar    1  UNL1        0.0111
     26 C          60.6803   87.6319    9.1098 C.ar    1  UNL1        0.0577
     27 CL         59.8973   86.4017    8.7583 Cl      1  UNL1       -0.0822
     28 C          60.0567   88.9874    8.9557 C.ar    1  UNL1        0.0111
     29 C          60.8396   90.2176    9.3072 C.ar    1  UNL1       -0.0015
     30 O          63.5337   89.3475   16.9817 O.3     1  UNL1       -0.4690
     31 C          62.8721   88.0472   17.3303 C.3     1  UNL1        0.2508
     32 C          63.1589   86.8185   16.5190 C.ar    1  UNL1        0.1026
     33 C          64.3364   86.7910   15.5902 C.ar    1  UNL1        0.0185
     34 C          64.6231   85.5624   14.7790 C.ar    1  UNL1        0.0029
     35 C          63.7324   84.3612   14.8965 C.ar    1  UNL1        0.0207
     36 C          62.5549   84.3888   15.8253 C.ar    1  UNL1        0.0986
     37 N          62.2681   85.6174   16.6365 N.ar    1  UNL1       -0.2445
@<TRIPOS>UNITY_ATOM_ATTR
20 1
charge -1
@<TRIPOS>BOND
     1    11    12    1
     2    12    13    1
     3    12    14    1
     4    12    10    1
     5    10     1    1
     6     1     2   ar
     7     2    15    1
     8    15    16    1
     9    16    17    1
    10    16    18    1
    11    16    19    1
    12    19    20   ar
    13    19    21   ar
    14     2     3   ar
    15     3    22    1
    16    22    23    1
    17    23    24   ar
    18    24    25   ar
    19    25    26   ar
    20    26    27    1
    21    26    28   ar
    22    28    29   ar
    23     3     4   ar
    24     4     5   ar
    25     5     6   ar
    26     6     7   ar
    27     7    30    1
    28    30    31    1
    29    31    32    1
    30    32    33   ar
    31    33    34   ar
    32    34    35   ar
    33    35    36   ar
    34    36    37   ar
    35     7     8   ar
    36     8     9   ar
    37     9     1   ar
    38    29    23   ar
    39     9     4   ar
    40    37    32   ar
@<TRIPOS>MOLECULE
*****
 37 40 0 0 0
SMALL
GASTEIGER

@<TRIPOS>ATOM
      1 C          62.7250   89.0362   11.8010 C.ar    1  UNL1        0.0383
      2 C          63.4097   88.0967   12.7488 C.ar    1  UNL1        0.0433
      3 N          63.1687   86.6963   12.2683 N.ar    1  UNL1       -0.3260
      4 C          62.3350   86.7704   11.0235 C.ar    1  UNL1        0.0606
      5 C          61.7901   85.7079   10.1157 C.ar    1  UNL1        0.0203
      6 C          60.9710   86.0915    8.9191 C.ar    1  UNL1        0.0384
      7 C          60.6968   87.5377    8.6303 C.ar    1  UNL1        0.1392
      8 C          61.2417   88.6002    9.5381 C.ar    1  UNL1        0.0389
      9 C          62.0607   88.2166   10.7347 C.ar    1  UNL1        0.0256
     10 S          62.7075   90.5327   11.9017 S.3     1  UNL1       -0.1142
     11 C          63.2360   91.2299    9.9692 C.3     1  UNL1        0.0112
     12 C          63.8417   91.3358   11.3374 C.3     1  UNL1        0.0434
     13 C          64.4475   91.4416   12.7056 C.3     1  UNL1        0.0112
     14 C          64.9760   92.1388   10.7731 C.3     1  UNL1        0.0112
     15 C          64.1972   88.4886   13.9638 C.3     1  UNL1        0.0495
     16 C          63.6899   88.1388   15.3313 C.3     1  UNL1        0.0376
     17 C          63.0464   89.4895   15.4382 C.3     1  UNL1        0.0059
     18 C          64.3334   86.7881   15.2245 C.3     1  UNL1        0.0059
     19 C          63.1826   87.7890   16.6990 C.2     1  UNL1        0.0500
     20 O          62.6636   86.4093   16.9762 O.co2   1  UNL1       -0.5492
     21 O          63.1944   88.8190   17.7894 O.co2   1  UNL1       -0.5492
     22 C          63.6728   85.4420   12.9184 C.3     1  UNL1        0.1324
     23 C          63.5187   84.1223   12.2222 C.ar    1  UNL1        0.0004
     24 C          62.5517   83.1043   12.7500 C.ar    1  UNL1       -0.0015
     25 C          62.3976   81.7846   12.0540 C.ar    1  UNL1        0.0111
     26 C          63.2104   81.4829   10.8299 C.ar    1  UNL1        0.0577
     27 CL         63.0563   80.1632   10.1337 Cl      1  UNL1       -0.0822
     28 C          64.1774   82.5009   10.3020 C.ar    1  UNL1        0.0111
     29 C          64.3315   83.8206   10.9981 C.ar    1  UNL1       -0.0015
     30 O          59.8777   87.9213    7.4336 O.3     1  UNL1       -0.4690
     31 C          58.9803   89.1218    7.4926 C.3     1  UNL1        0.2508
     32 C          58.9549   90.0959    6.3521 C.ar    1  UNL1        0.1026
     33 C          60.2306   90.4727    5.6590 C.ar    1  UNL1        0.0185
     34 C          60.2051   91.4467    4.5186 C.ar    1  UNL1        0.0029
     35 C          58.9039   92.0439    4.0713 C.ar    1  UNL1        0.0207
     36 C          57.6281   91.6672    4.7644 C.ar    1  UNL1        0.0986
     37 N          57.6536   90.6931    5.9048 N.ar    1  UNL1       -0.2445
@<TRIPOS>UNITY_ATOM_ATTR
20 1
charge -1
@<TRIPOS>BOND
     1    11    12    1
     2    12    13    1
     3    12    14    1
     4    12    10    1
     5    10     1    1
     6     1     2   ar
     7     2    15    1
     8    15    16    1
     9    16    17    1
    10    16    18    1
    11    16    19    1
    12    19    20   ar
    13    19    21   ar
    14     2     3   ar
    15     3    22    1
    16    22    23    1
    17    23    24   ar
    18    24    25   ar
    19    25    26   ar
    20    26    27    1
    21    26    28   ar
    22    28    29   ar
    23     3     4   ar
    24     4     5   ar
    25     5     6   ar
    26     6     7   ar
    27     7    30    1
    28    30    31    1
    29    31    32    1
    30    32    33   ar
    31    33    34   ar
    32    34    35   ar
    33    35    36   ar
    34    36    37   ar
    35     7     8   ar
    36     8     9   ar
    37     9     1   ar
    38    29    23   ar
    39     9     4   ar
    40    37    32   ar
@<TRIPOS>MOLECULE
*****
 37 40 0 0 0
SMALL
GASTEIGER

@<TRIPOS>ATOM
      1 C          64.6827   90.1335   13.8158 C.ar    1  UNL1        0.0383
      2 C          64.0943   90.8601   12.6428 C.ar    1  UNL1        0.0433
      3 N          63.2781   89.8805   11.8527 N.ar    1  UNL1       -0.3260
      4 C          63.3620   88.5485   12.5374 C.ar    1  UNL1        0.0606
      5 C          62.7600   87.2135   12.2128 C.ar    1  UNL1        0.0203
      6 C          63.0262   86.0348   13.1015 C.ar    1  UNL1        0.0384
      7 C          63.8943   86.1912   14.3147 C.ar    1  UNL1        0.1392
      8 C          64.4963   87.5262   14.6393 C.ar    1  UNL1        0.0389
      9 C          64.2301   88.7048   13.7506 C.ar    1  UNL1        0.0256
     10 S          65.5682   90.7306   14.8690 S.3     1  UNL1       -0.1142
     11 C          66.2302   92.4831   15.8642 C.3     1  UNL1        0.0112
     12 C          64.9876   91.6440   15.9074 C.3     1  UNL1        0.0434
     13 C          63.7449   90.8049   15.9508 C.3     1  UNL1        0.0112
     14 C          64.4070   92.5574   16.9460 C.3     1  UNL1        0.0112
     15 C          64.2881   92.3114   12.3171 C.3     1  UNL1        0.0495
     16 C          65.5017   92.7533   11.5542 C.3     1  UNL1        0.0376
     17 C          66.0060   93.4699   12.7716 C.3     1  UNL1        0.0059
     18 C          64.9974   92.0366   10.3369 C.3     1  UNL1        0.0059
     19 C          66.7153   93.1952   10.7913 C.2     1  UNL1        0.0500
     20 O          67.5276   92.1917   10.0276 O.co2   1  UNL1       -0.5492
     21 O          67.1166   94.6405   10.7922 O.co2   1  UNL1       -0.5492
     22 C          62.5123   90.1803   10.5982 C.3     1  UNL1        0.1324
     23 C          61.8400   89.0699    9.8464 C.ar    1  UNL1        0.0004
     24 C          62.5946   87.8120    9.5331 C.ar    1  UNL1       -0.0015
     25 C          61.9224   86.7016    8.7814 C.ar    1  UNL1        0.0111
     26 C          60.4954   86.8491    8.3430 C.ar    1  UNL1        0.0577
     27 CL         59.8231   85.7388    7.5913 Cl      1  UNL1       -0.0822
     28 C          59.7408   88.1070    8.6564 C.ar    1  UNL1        0.0111
     29 C          60.4131   89.2174    9.4081 C.ar    1  UNL1       -0.0015
     30 O          64.1605   85.0124   15.2035 O.3     1  UNL1       -0.4690
     31 C          63.1033   83.9664   15.3986 C.3     1  UNL1        0.2508
     32 C          62.9880   82.8267   14.4301 C.ar    1  UNL1        0.1026
     33 C          61.8205   81.8885   14.5115 C.ar    1  UNL1        0.0185
     34 C          61.7052   80.7489   13.5430 C.ar    1  UNL1        0.0029
     35 C          62.7574   80.5475   12.4931 C.ar    1  UNL1        0.0207
     36 C          63.9249   81.4858   12.4117 C.ar    1  UNL1        0.0986
     37 N          64.0402   82.6253   13.3801 N.ar    1  UNL1       -0.2445
@<TRIPOS>UNITY_ATOM_ATTR
20 1
charge -1
@<TRIPOS>BOND
     1    11    12    1
     2    12    13    1
     3    12    14    1
     4    12    10    1
     5    10     1    1
     6     1     2   ar
     7     2    15    1
     8    15    16    1
     9    16    17    1
    10    16    18    1
    11    16    19    1
    12    19    20   ar
    13    19    21   ar
    14     2     3   ar
    15     3    22    1
    16    22    23    1
    17    23    24   ar
    18    24    25   ar
    19    25    26   ar
    20    26    27    1
    21    26    28   ar
    22    28    29   ar
    23     3     4   ar
    24     4     5   ar
    25     5     6   ar
    26     6     7   ar
    27     7    30    1
    28    30    31    1
    29    31    32    1
    30    32    33   ar
    31    33    34   ar
    32    34    35   ar
    33    35    36   ar
    34    36    37   ar
    35     7     8   ar
    36     8     9   ar
    37     9     1   ar
    38    29    23   ar
    39     9     4   ar
    40    37    32   ar
@<TRIPOS>MOLECULE
*****
 37 40 0 0 0
SMALL
GASTEIGER

@<TRIPOS>ATOM
      1 C          63.0955   89.7966   12.1685 C.ar    1  UNL1        0.0383
      2 C          63.7899   88.8232   13.0742 C.ar    1  UNL1        0.0433
      3 N          63.2453   87.4550   12.7888 N.ar    1  UNL1       -0.3260
      4 C          62.2145   87.5829   11.7066 C.ar    1  UNL1        0.0606
      5 C          61.3481   86.5684   11.0208 C.ar    1  UNL1        0.0203
      6 C          60.3892   87.0013    9.9517 C.ar    1  UNL1        0.0384
      7 C          60.2966   88.4485    9.5684 C.ar    1  UNL1        0.1392
      8 C          61.1630   89.4629   10.2542 C.ar    1  UNL1        0.0389
      9 C          62.1219   89.0301   11.3233 C.ar    1  UNL1        0.0256
     10 S          63.3331   91.2768   12.1170 S.3     1  UNL1       -0.1142
     11 C          65.1446   92.3511   12.3712 C.3     1  UNL1        0.0112
     12 C          64.3722   91.8380   11.1922 C.3     1  UNL1        0.0434
     13 C          63.5998   91.3249   10.0131 C.3     1  UNL1        0.0112
     14 C          65.4112   92.3991   10.2673 C.3     1  UNL1        0.0112
     15 C          64.8437   89.1590   14.0875 C.3     1  UNL1        0.0495
     16 C          64.6516   90.3251   15.0112 C.3     1  UNL1        0.0376
     17 C          65.9390   90.9221   14.5253 C.3     1  UNL1        0.0059
     18 C          63.3641   89.7281   15.4970 C.3     1  UNL1        0.0059
     19 C          64.4594   91.4913   15.9349 C.2     1  UNL1        0.0500
     20 O          65.5348   92.5287   16.0668 O.co2   1  UNL1       -0.5492
     21 O          63.1920   91.6200   16.7267 O.co2   1  UNL1       -0.5492
     22 C          63.6590   86.1824   13.4664 C.3     1  UNL1        0.1324
     23 C          63.4637   84.8661   12.7740 C.ar    1  UNL1        0.0004
     24 C          62.7438   83.7508   13.4724 C.ar    1  UNL1       -0.0015
     25 C          62.5484   82.4346   12.7800 C.ar    1  UNL1        0.0111
     26 C          63.0730   82.2338   11.3891 C.ar    1  UNL1        0.0577
     27 CL         62.8776   80.9176   10.6967 Cl      1  UNL1       -0.0822
     28 C          63.7928   83.3491   10.6907 C.ar    1  UNL1        0.0111
     29 C          63.9882   84.6653   11.3831 C.ar    1  UNL1       -0.0015
     30 O          59.3377   88.8813    8.4991 O.3     1  UNL1       -0.4690
     31 C          59.7407   88.8089    7.0562 C.3     1  UNL1        0.2508
     32 C          59.3662   89.9164    6.1163 C.ar    1  UNL1        0.1026
     33 C          60.4270   90.6102    5.3142 C.ar    1  UNL1        0.0185
     34 C          60.0525   91.7177    4.3745 C.ar    1  UNL1        0.0029
     35 C          58.6172   92.1314    4.2368 C.ar    1  UNL1        0.0207
     36 C          57.5565   91.4376    5.0390 C.ar    1  UNL1        0.0986
     37 N          57.9310   90.3301    5.9787 N.ar    1  UNL1       -0.2445
@<TRIPOS>UNITY_ATOM_ATTR
20 1
charge -1
@<TRIPOS>BOND
     1    11    12    1
     2    12    13    1
     3    12    14    1
     4    12    10    1
     5    10     1    1
     6     1     2   ar
     7     2    15    1
     8    15    16    1
     9    16    17    1
    10    16    18    1
    11    16    19    1
    12    19    20   ar
    13    19    21   ar
    14     2     3   ar
    15     3    22    1
    16    22    23    1
    17    23    24   ar
    18    24    25   ar
    19    25    26   ar
    20    26    27    1
    21    26    28   ar
    22    28    29   ar
    23     3     4   ar
    24     4     5   ar
    25     5     6   ar
    26     6     7   ar
    27     7    30    1
    28    30    31    1
    29    31    32    1
    30    32    33   ar
    31    33    34   ar
    32    34    35   ar
    33    35    36   ar
    34    36    37   ar
    35     7     8   ar
    36     8     9   ar
    37     9     1   ar
    38    29    23   ar
    39     9     4   ar
    40    37    32   ar
@<TRIPOS>MOLECULE
*****
 37 40 0 0 0
SMALL
GASTEIGER

@<TRIPOS>ATOM
      1 C          63.3697   89.7855   12.6259 C.ar    1  UNL1        0.0383
      2 C          64.2670   89.0692   13.5912 C.ar    1  UNL1        0.0433
      3 N          63.9156   87.6114   13.5563 N.ar    1  UNL1       -0.3260
      4 C          62.8011   87.4267   12.5695 C.ar    1  UNL1        0.0606
      5 C          62.0499   86.2086   12.1202 C.ar    1  UNL1        0.0203
      6 C          60.9614   86.3341   11.0959 C.ar    1  UNL1        0.0384
      7 C          60.6240   87.6778   10.5208 C.ar    1  UNL1        0.1392
      8 C          61.3752   88.8960   10.9701 C.ar    1  UNL1        0.0389
      9 C          62.4637   88.7704   11.9944 C.ar    1  UNL1        0.0256
     10 S          63.3770   91.2584   12.3419 S.3     1  UNL1       -0.1142
     11 C          65.1676   92.3949   12.3896 C.3     1  UNL1        0.0112
     12 C          64.3061   91.8178   11.3058 C.3     1  UNL1        0.0434
     13 C          63.4446   91.2407   10.2218 C.3     1  UNL1        0.0112
     14 C          65.2352   92.3772   10.2695 C.3     1  UNL1        0.0112
     15 C          65.3291   89.7000   14.4420 C.3     1  UNL1        0.0495
     16 C          64.9729   90.8097   15.3863 C.3     1  UNL1        0.0376
     17 C          63.7133   90.0866   15.7608 C.3     1  UNL1        0.0059
     18 C          66.2326   91.5328   15.0117 C.3     1  UNL1        0.0059
     19 C          64.6166   91.9194   16.3306 C.2     1  UNL1        0.0500
     20 O          65.6924   92.8024   16.8902 O.co2   1  UNL1       -0.5492
     21 O          63.1847   92.1462   16.7153 O.co2   1  UNL1       -0.5492
     22 C          64.5646   86.5284   14.3661 C.3     1  UNL1        0.1324
     23 C          64.0409   85.1244   14.2975 C.ar    1  UNL1        0.0004
     24 C          64.5976   84.1648   13.2880 C.ar    1  UNL1       -0.0015
     25 C          64.0739   82.7608   13.2193 C.ar    1  UNL1        0.0111
     26 C          62.9935   82.3166   14.1602 C.ar    1  UNL1        0.0577
     27 CL         62.4698   80.9126   14.0916 Cl      1  UNL1       -0.0822
     28 C          62.4368   83.2762   15.1697 C.ar    1  UNL1        0.0111
     29 C          62.9605   84.6801   15.2384 C.ar    1  UNL1       -0.0015
     30 O          59.5354   87.8034    9.4965 O.3     1  UNL1       -0.4690
     31 C          59.8236   87.5038    8.0552 C.3     1  UNL1        0.2508
     32 C          60.8016   86.4252    7.6944 C.ar    1  UNL1        0.1026
     33 C          62.1274   86.3508    8.3921 C.ar    1  UNL1        0.0185
     34 C          63.1053   85.2723    8.0313 C.ar    1  UNL1        0.0029
     35 C          62.7575   84.2680    6.9727 C.ar    1  UNL1        0.0207
     36 C          61.4318   84.3423    6.2750 C.ar    1  UNL1        0.0986
     37 N          60.4538   85.4209    6.6359 N.ar    1  UNL1       -0.2445
@<TRIPOS>UNITY_ATOM_ATTR
20 1
charge -1
@<TRIPOS>BOND
     1    11    12    1
     2    12    13    1
     3    12    14    1
     4    12    10    1
     5    10     1    1
     6     1     2   ar
     7     2    15    1
     8    15    16    1
     9    16    17    1
    10    16    18    1
    11    16    19    1
    12    19    20   ar
    13    19    21   ar
    14     2     3   ar
    15     3    22    1
    16    22    23    1
    17    23    24   ar
    18    24    25   ar
    19    25    26   ar
    20    26    27    1
    21    26    28   ar
    22    28    29   ar
    23     3     4   ar
    24     4     5   ar
    25     5     6   ar
    26     6     7   ar
    27     7    30    1
    28    30    31    1
    29    31    32    1
    30    32    33   ar
    31    33    34   ar
    32    34    35   ar
    33    35    36   ar
    34    36    37   ar
    35     7     8   ar
    36     8     9   ar
    37     9     1   ar
    38    29    23   ar
    39     9     4   ar
    40    37    32   ar
