@<TRIPOS>MOLECULE
*****
 29 32 0 0 0
SMALL
GASTEIGER

@<TRIPOS>ATOM
      1 C          62.9699   90.6489   12.5203 C.3     1  UNL1        0.0510
      2 N          62.5548   90.1411   13.8692 N.3     1  UNL1       -0.3227
      3 C          62.9227   90.9492   11.0514 C.3     1  UNL1        0.0654
      4 C          64.0629   91.6707   10.3963 C.3     1  UNL1        0.2034
      5 N          65.2505   92.0920   11.2101 N.pl3   1  UNL1       -0.1931
      6 C          65.2978   91.7918   12.6789 C.3     1  UNL1        0.2034
      7 C          64.1575   91.0702   13.3340 C.3     1  UNL1        0.0654
      8 H          61.6406   89.6944   13.7977 H       1  UNL1        0.1188
      9 H          62.5018   90.9210   14.5245 H       1  UNL1        0.1188
     10 C          66.3907   92.8136   10.5549 C.2     1  UNL1        0.3205
     11 N          67.6006   92.0506   10.1032 N.2     1  UNL1        0.0097
     12 C          68.7408   92.7721    9.4481 C.2     1  UNL1        0.4717
     13 N          68.6712   94.2567    9.2446 N.2     1  UNL1        0.0158
     14 C          67.4614   95.0196    9.6964 C.2     1  UNL1        0.3714
     15 N          67.1112   96.4767    9.6303 N.2     1  UNL1       -0.0339
     16 C          65.7545   96.6557   10.2446 C.2     1  UNL1        0.2323
     17 C          65.2662   95.3092   10.6903 C.2     1  UNL1        0.0486
     18 C          66.3211   94.2981   10.3515 C.3     1  UNL1        0.2428
     19 C          61.6382   90.0513   12.1750 C.3     1  UNL1        0.0408
     20 C          61.3487   86.8968    8.9788 C.ar    1  UNL1       -0.0228
     21 C          62.2978   86.7169   10.1264 C.ar    1  UNL1       -0.0046
     22 C          62.3943   87.7684   11.1917 C.ar    1  UNL1       -0.0045
     23 C          61.5417   88.9998   11.1096 C.ar    1  UNL1       -0.0209
     24 C          60.5926   89.1797    9.9621 C.ar    1  UNL1       -0.0045
     25 C          60.4961   88.1281    8.8967 C.ar    1  UNL1       -0.0046
     26 C          62.6663   85.4314    8.1939 C.3     1  UNL1        0.0044
     27 C          61.2521   85.8453    7.9134 C.3     1  UNL1        0.0189
     28 C          59.8380   86.2592    7.6330 C.3     1  UNL1        0.0044
     29 C          61.1556   84.7938    6.8480 C.3     1  UNL1        0.0044
@<TRIPOS>BOND
     1    26    27    1
     2    27    28    1
     3    27    29    1
     4    27    20    1
     5    20    21   ar
     6    21    22   ar
     7    22    23   ar
     8    23    19    1
     9    19     1    1
    10     1     2    1
    11     1     3    1
    12     3     4    1
    13     4     5    1
    14     5    10    1
    15    10    11    2
    16    11    12    1
    17    12    13    2
    18    13    14    1
    19    14    15    2
    20    15    16    1
    21    16    17    2
    22    17    18    1
    23     5     6    1
    24     6     7    1
    25    23    24   ar
    26    24    25   ar
    27    25    20   ar
    28     7     1    1
    29    18    10    1
    30    18    14    1
    31     2     8    1
    32     2     9    1
@<TRIPOS>MOLECULE
*****
 29 32 0 0 0
SMALL
GASTEIGER

@<TRIPOS>ATOM
      1 C          63.2839   86.6974   16.6501 C.3     1  UNL1        0.0510
      2 N          62.4311   86.3427   17.8319 N.3     1  UNL1       -0.3227
      3 C          64.2207   86.5385   15.4893 C.3     1  UNL1        0.0654
      4 C          64.6195   87.7354   14.6781 C.3     1  UNL1        0.2034
      5 N          64.0816   89.0914   15.0275 N.pl3   1  UNL1       -0.1931
      6 C          63.1449   89.2504   16.1882 C.3     1  UNL1        0.2034
      7 C          62.7460   88.0533   16.9995 C.3     1  UNL1        0.0654
      8 H          62.4916   85.3395   18.0059 H       1  UNL1        0.1188
      9 H          61.4620   86.5967   17.6404 H       1  UNL1        0.1188
     10 C          64.4805   90.2884   14.2162 C.2     1  UNL1        0.3205
     11 N          65.4357   91.2954   14.7849 N.2     1  UNL1        0.0097
     12 C          65.8345   92.4923   13.9737 C.2     1  UNL1        0.4717
     13 N          65.2782   92.6823   12.5936 N.2     1  UNL1        0.0158
     14 C          64.3230   91.6752   12.0249 C.2     1  UNL1        0.3714
     15 N          63.6163   91.5965   10.7042 N.2     1  UNL1       -0.0339
     16 C          62.7807   90.3509   10.6992 C.2     1  UNL1        0.2323
     17 C          62.9709   89.6597   12.0169 C.2     1  UNL1        0.0486
     18 C          63.9241   90.4783   12.8362 C.3     1  UNL1        0.2428
     19 C          63.5256   85.2183   16.7110 C.3     1  UNL1        0.0408
     20 C          63.3316   82.7502   12.9532 C.ar    1  UNL1       -0.0228
     21 C          64.6308   83.3677   13.3787 C.ar    1  UNL1       -0.0046
     22 C          64.6954   84.1903   14.6314 C.ar    1  UNL1       -0.0045
     23 C          63.4610   84.3956   15.4584 C.ar    1  UNL1       -0.0209
     24 C          62.1619   83.7782   15.0328 C.ar    1  UNL1       -0.0045
     25 C          62.0972   82.9555   13.7802 C.ar    1  UNL1       -0.0046
     26 C          63.8107   83.0830   10.9137 C.3     1  UNL1        0.0044
     27 C          63.2669   81.9276   11.7005 C.3     1  UNL1        0.0189
     28 C          62.7231   80.7722   12.4874 C.3     1  UNL1        0.0044
     29 C          63.2022   81.1050   10.4479 C.3     1  UNL1        0.0044
@<TRIPOS>BOND
     1    26    27    1
     2    27    28    1
     3    27    29    1
     4    27    20    1
     5    20    21   ar
     6    21    22   ar
     7    22    23   ar
     8    23    19    1
     9    19     1    1
    10     1     2    1
    11     1     3    1
    12     3     4    1
    13     4     5    1
    14     5    10    1
    15    10    11    2
    16    11    12    1
    17    12    13    2
    18    13    14    1
    19    14    15    2
    20    15    16    1
    21    16    17    2
    22    17    18    1
    23     5     6    1
    24     6     7    1
    25    23    24   ar
    26    24    25   ar
    27    25    20   ar
    28     7     1    1
    29    18    10    1
    30    18    14    1
    31     2     8    1
    32     2     9    1
@<TRIPOS>MOLECULE
*****
 29 32 0 0 0
SMALL
GASTEIGER

@<TRIPOS>ATOM
      1 C          63.4461   87.2761   16.4658 C.3     1  UNL1        0.0510
      2 N          62.7363   87.0700   17.7710 N.3     1  UNL1       -0.3227
      3 C          64.2268   86.9697   15.2221 C.3     1  UNL1        0.0654
      4 C          64.5569   88.0672   14.2544 C.3     1  UNL1        0.2034
      5 N          64.1062   89.4711   14.5303 N.pl3   1  UNL1       -0.1931
      6 C          63.3255   89.7775   15.7739 C.3     1  UNL1        0.2034
      7 C          62.9955   88.6799   16.7417 C.3     1  UNL1        0.0654
      8 H          62.7886   86.0861   18.0348 H       1  UNL1        0.1188
      9 H          61.7588   87.3445   17.6735 H       1  UNL1        0.1188
     10 C          64.4363   90.5686   13.5625 C.2     1  UNL1        0.3205
     11 N          63.7463   90.6279   12.2319 N.2     1  UNL1        0.0097
     12 C          64.0764   91.7253   11.2642 C.2     1  UNL1        0.4717
     13 N          65.0964   92.7636   11.6270 N.2     1  UNL1        0.0158
     14 C          65.7864   92.7043   12.9575 C.2     1  UNL1        0.3714
     15 N          66.8274   93.5810   13.5882 N.2     1  UNL1       -0.0339
     16 C          67.1406   93.0253   14.9458 C.2     1  UNL1        0.2323
     17 C          66.2933   91.8052   15.1542 C.2     1  UNL1        0.0486
     18 C          65.4563   91.6068   13.9253 C.3     1  UNL1        0.2428
     19 C          63.6503   85.8007   16.6431 C.3     1  UNL1        0.0408
     20 C          63.3877   83.0502   13.0912 C.ar    1  UNL1       -0.0228
     21 C          64.6989   83.6810   13.4560 C.ar    1  UNL1       -0.0046
     22 C          64.7863   84.5978   14.6400 C.ar    1  UNL1       -0.0045
     23 C          63.5628   84.8838   15.4591 C.ar    1  UNL1       -0.0209
     24 C          62.2516   84.2531   15.0943 C.ar    1  UNL1       -0.0045
     25 C          62.1641   83.3362   13.9103 C.ar    1  UNL1       -0.0046
     26 C          62.4093   81.2120   12.6867 C.3     1  UNL1        0.0044
     27 C          63.3001   82.1334   11.9072 C.3     1  UNL1        0.0189
     28 C          64.1909   83.0547   11.1278 C.3     1  UNL1        0.0044
     29 C          63.2125   81.2165   10.7233 C.3     1  UNL1        0.0044
@<TRIPOS>BOND
     1    26    27    1
     2    27    28    1
     3    27    29    1
     4    27    20    1
     5    20    21   ar
     6    21    22   ar
     7    22    23   ar
     8    23    19    1
     9    19     1    1
    10     1     2    1
    11     1     3    1
    12     3     4    1
    13     4     5    1
    14     5    10    1
    15    10    11    2
    16    11    12    1
    17    12    13    2
    18    13    14    1
    19    14    15    2
    20    15    16    1
    21    16    17    2
    22    17    18    1
    23     5     6    1
    24     6     7    1
    25    23    24   ar
    26    24    25   ar
    27    25    20   ar
    28     7     1    1
    29    18    10    1
    30    18    14    1
    31     2     8    1
    32     2     9    1
@<TRIPOS>MOLECULE
*****
 29 32 0 0 0
SMALL
GASTEIGER

@<TRIPOS>ATOM
      1 C          64.9624   91.9302   14.9823 C.3     1  UNL1        0.0510
      2 N          65.1532   92.0953   16.4609 N.3     1  UNL1       -0.3227
      3 C          64.3544   91.5066   13.6781 C.3     1  UNL1        0.0654
      4 C          65.0140   91.8848   12.3851 C.3     1  UNL1        0.2034
      5 N          66.2818   92.6866   12.3963 N.pl3   1  UNL1       -0.1931
      6 C          66.8898   93.1102   13.7005 C.3     1  UNL1        0.2034
      7 C          66.2301   92.7320   14.9935 C.3     1  UNL1        0.0654
      8 H          64.3927   91.6294   16.9559 H       1  UNL1        0.1188
      9 H          65.1534   93.0880   16.6949 H       1  UNL1        0.1188
     10 C          66.9414   93.0648   11.1033 C.2     1  UNL1        0.3205
     11 N          67.9820   92.1674   10.5016 N.2     1  UNL1        0.0097
     12 C          68.6416   92.5455    9.2087 C.2     1  UNL1        0.4717
     13 N          68.2607   93.8211    8.5173 N.2     1  UNL1        0.0158
     14 C          67.2202   94.7185    9.1190 C.2     1  UNL1        0.3714
     15 N          66.6436   96.0284    8.6701 N.2     1  UNL1       -0.0339
     16 C          65.6276   96.4599    9.6858 C.2     1  UNL1        0.2323
     17 C          65.5762   95.4166   10.7623 C.2     1  UNL1        0.0486
     18 C          66.5606   94.3403   10.4120 C.3     1  UNL1        0.2428
     19 C          63.7610   91.1858   15.4846 C.3     1  UNL1        0.0408
     20 C          63.7735   86.6864   15.5639 C.ar    1  UNL1       -0.0228
     21 C          63.1673   87.4549   16.7006 C.ar    1  UNL1       -0.0046
     22 C          63.1631   88.9547   16.6741 C.ar    1  UNL1       -0.0045
     23 C          63.7651   89.6860   15.5111 C.ar    1  UNL1       -0.0209
     24 C          64.3713   88.9175   14.3744 C.ar    1  UNL1       -0.0045
     25 C          64.3755   87.4177   14.4009 C.ar    1  UNL1       -0.0046
     26 C          62.5623   85.1988   16.4694 C.3     1  UNL1        0.0044
     27 C          63.7777   85.1867   15.5904 C.3     1  UNL1        0.0189
     28 C          64.9930   85.1746   14.7114 C.3     1  UNL1        0.0044
     29 C          63.7818   83.6869   15.6168 C.3     1  UNL1        0.0044
@<TRIPOS>BOND
     1    26    27    1
     2    27    28    1
     3    27    29    1
     4    27    20    1
     5    20    21   ar
     6    21    22   ar
     7    22    23   ar
     8    23    19    1
     9    19     1    1
    10     1     2    1
    11     1     3    1
    12     3     4    1
    13     4     5    1
    14     5    10    1
    15    10    11    2
    16    11    12    1
    17    12    13    2
    18    13    14    1
    19    14    15    2
    20    15    16    1
    21    16    17    2
    22    17    18    1
    23     5     6    1
    24     6     7    1
    25    23    24   ar
    26    24    25   ar
    27    25    20   ar
    28     7     1    1
    29    18    10    1
    30    18    14    1
    31     2     8    1
    32     2     9    1
@<TRIPOS>MOLECULE
*****
 29 32 0 0 0
SMALL
GASTEIGER

@<TRIPOS>ATOM
      1 C          61.3576   88.5287   10.0322 C.3     1  UNL1        0.0510
      2 N          60.6239   89.2174    8.9199 N.3     1  UNL1       -0.3227
      3 C          62.0551   88.3200   11.3437 C.3     1  UNL1        0.0654
      4 C          62.6020   86.9684   11.6955 C.3     1  UNL1        0.2034
      5 N          62.4515   85.8253   10.7359 N.pl3   1  UNL1       -0.1931
      6 C          61.7540   86.0340    9.4244 C.3     1  UNL1        0.2034
      7 C          61.2070   87.3857    9.0726 C.3     1  UNL1        0.0654
      8 H          60.4726   90.1955    9.1668 H       1  UNL1        0.1188
      9 H          59.7238   88.7608    8.7725 H       1  UNL1        0.1188
     10 C          62.9984   84.4736   11.0877 C.2     1  UNL1        0.3205
     11 N          63.6057   83.6097   10.0224 N.2     1  UNL1        0.0097
     12 C          64.1526   82.2581   10.3742 C.2     1  UNL1        0.4717
     13 N          64.0924   81.7703   11.7914 N.2     1  UNL1        0.0158
     14 C          63.4852   82.6342   12.8567 C.2     1  UNL1        0.3714
     15 N          63.2877   82.4229   14.3286 N.2     1  UNL1       -0.0339
     16 C          62.6187   83.6441   14.8864 C.2     1  UNL1        0.2323
     17 C          62.4027   84.6100   13.7593 C.2     1  UNL1        0.0486
     18 C          62.9382   83.9858   12.5049 C.3     1  UNL1        0.2428
     19 C          61.2533   89.9109   10.6056 C.3     1  UNL1        0.0408
     20 C          64.8360   91.8149   12.5523 C.ar    1  UNL1       -0.0228
     21 C          63.8642   91.0259   13.3788 C.ar    1  UNL1       -0.0046
     22 C          62.6700   90.3912   12.7299 C.ar    1  UNL1       -0.0045
     23 C          62.4476   90.5455   11.2545 C.ar    1  UNL1       -0.0209
     24 C          63.4194   91.3346   10.4280 C.ar    1  UNL1       -0.0045
     25 C          64.6136   91.9692   11.0770 C.ar    1  UNL1       -0.0046
     26 C          66.0799   93.4745   12.1070 C.3     1  UNL1        0.0044
     27 C          66.0302   92.4496   13.2012 C.3     1  UNL1        0.0189
     28 C          65.9805   91.4248   14.2952 C.3     1  UNL1        0.0044
     29 C          67.2245   93.0844   13.8499 C.3     1  UNL1        0.0044
@<TRIPOS>BOND
     1    26    27    1
     2    27    28    1
     3    27    29    1
     4    27    20    1
     5    20    21   ar
     6    21    22   ar
     7    22    23   ar
     8    23    19    1
     9    19     1    1
    10     1     2    1
    11     1     3    1
    12     3     4    1
    13     4     5    1
    14     5    10    1
    15    10    11    2
    16    11    12    1
    17    12    13    2
    18    13    14    1
    19    14    15    2
    20    15    16    1
    21    16    17    2
    22    17    18    1
    23     5     6    1
    24     6     7    1
    25    23    24   ar
    26    24    25   ar
    27    25    20   ar
    28     7     1    1
    29    18    10    1
    30    18    14    1
    31     2     8    1
    32     2     9    1
@<TRIPOS>MOLECULE
*****
 29 32 0 0 0
SMALL
GASTEIGER

@<TRIPOS>ATOM
      1 C          62.0642   88.9465   10.7946 C.3     1  UNL1        0.0510
      2 N          61.5593   89.8753    9.7306 N.3     1  UNL1       -0.3227
      3 C          62.5607   88.4648   12.1257 C.3     1  UNL1        0.0654
      4 C          62.9062   87.0180   12.3185 C.3     1  UNL1        0.2034
      5 N          62.7552   86.0527   11.1802 N.pl3   1  UNL1       -0.1931
      6 C          62.2587   86.5342    9.8492 C.3     1  UNL1        0.2034
      7 C          61.9132   87.9812    9.6565 C.3     1  UNL1        0.0654
      8 H          61.4860   90.8192   10.1101 H       1  UNL1        0.1188
      9 H          60.6408   89.5635    9.4150 H       1  UNL1        0.1188
     10 C          63.1007   84.6058   11.3731 C.2     1  UNL1        0.3205
     11 N          63.5824   83.7884   10.2113 N.2     1  UNL1        0.0097
     12 C          63.9279   82.3416   10.4041 C.2     1  UNL1        0.4717
     13 N          63.7918   81.7120   11.7588 N.2     1  UNL1        0.0158
     14 C          63.3101   82.5294   12.9206 C.2     1  UNL1        0.3714
     15 N          63.0776   82.1854   14.3620 N.2     1  UNL1       -0.0339
     16 C          62.5884   83.4197   15.0600 C.2     1  UNL1        0.2323
     17 C          62.5185   84.5265   14.0500 C.2     1  UNL1        0.0486
     18 C          62.9646   83.9763   12.7278 C.3     1  UNL1        0.2428
     19 C          62.0399   90.2343   11.5633 C.3     1  UNL1        0.0408
     20 C          65.7475   91.6644   13.6748 C.ar    1  UNL1       -0.0228
     21 C          65.5122   92.0331   12.2400 C.ar    1  UNL1       -0.0046
     22 C          64.2763   91.5564   11.5362 C.ar    1  UNL1       -0.0045
     23 C          63.2758   90.7110   12.2671 C.ar    1  UNL1       -0.0209
     24 C          63.5112   90.3423   13.7019 C.ar    1  UNL1       -0.0045
     25 C          64.7471   90.8190   14.4057 C.ar    1  UNL1       -0.0046
     26 C          66.1761   92.4098   15.6140 C.3     1  UNL1        0.0044
     27 C          66.9834   92.1410   14.3787 C.3     1  UNL1        0.0189
     28 C          67.7906   91.8722   13.1434 C.3     1  UNL1        0.0044
     29 C          68.2192   92.6177   15.0827 C.3     1  UNL1        0.0044
@<TRIPOS>BOND
     1    26    27    1
     2    27    28    1
     3    27    29    1
     4    27    20    1
     5    20    21   ar
     6    21    22   ar
     7    22    23   ar
     8    23    19    1
     9    19     1    1
    10     1     2    1
    11     1     3    1
    12     3     4    1
    13     4     5    1
    14     5    10    1
    15    10    11    2
    16    11    12    1
    17    12    13    2
    18    13    14    1
    19    14    15    2
    20    15    16    1
    21    16    17    2
    22    17    18    1
    23     5     6    1
    24     6     7    1
    25    23    24   ar
    26    24    25   ar
    27    25    20   ar
    28     7     1    1
    29    18    10    1
    30    18    14    1
    31     2     8    1
    32     2     9    1
@<TRIPOS>MOLECULE
*****
 29 32 0 0 0
SMALL
GASTEIGER

@<TRIPOS>ATOM
      1 C          61.6127   89.2359   10.2104 C.3     1  UNL1        0.0510
      2 N          60.8428   89.2881    8.9242 N.3     1  UNL1       -0.3227
      3 C          62.1268   88.7309   11.5260 C.3     1  UNL1        0.0654
      4 C          63.1102   89.5479   12.3104 C.3     1  UNL1        0.2034
      5 N          63.5796   90.8700   11.7793 N.pl3   1  UNL1       -0.1931
      6 C          63.0655   91.3750   10.4638 C.3     1  UNL1        0.2034
      7 C          62.0820   90.5579    9.6793 C.3     1  UNL1        0.0654
      8 H          60.2757   88.4452    8.8329 H       1  UNL1        0.1188
      9 H          61.4932   89.3467    8.1407 H       1  UNL1        0.1188
     10 C          64.5630   91.6870   12.5638 C.2     1  UNL1        0.3205
     11 N          64.7501   91.4309   14.0299 N.2     1  UNL1        0.0097
     12 C          65.7335   92.2478   14.8143 C.2     1  UNL1        0.4717
     13 N          66.5298   93.3209   14.1328 N.2     1  UNL1        0.0158
     14 C          66.3427   93.5770   12.6667 C.2     1  UNL1        0.3714
     15 N          66.9810   94.5592   11.7299 N.2     1  UNL1       -0.0339
     16 C          66.3921   94.3493   10.3664 C.2     1  UNL1        0.2323
     17 C          65.3898   93.2373   10.4605 C.2     1  UNL1        0.0486
     18 C          65.3592   92.7600   11.8822 C.3     1  UNL1        0.2428
     19 C          60.8760   87.9321   10.2948 C.3     1  UNL1        0.0408
     20 C          63.1085   84.1450   11.2562 C.ar    1  UNL1       -0.0228
     21 C          62.3789   84.8814   12.3405 C.ar    1  UNL1       -0.0046
     22 C          61.6348   86.1437   12.0200 C.ar    1  UNL1       -0.0045
     23 C          61.6201   86.6697   10.6153 C.ar    1  UNL1       -0.0209
     24 C          62.3497   85.9333    9.5311 C.ar    1  UNL1       -0.0045
     25 C          63.0939   84.6709    9.8516 C.ar    1  UNL1       -0.0046
     26 C          63.4831   83.0319   13.0227 C.3     1  UNL1        0.0044
     27 C          63.8527   82.8826   11.5766 C.3     1  UNL1        0.0189
     28 C          64.2222   82.7334   10.1306 C.3     1  UNL1        0.0044
     29 C          64.5968   81.6202   11.8972 C.3     1  UNL1        0.0044
@<TRIPOS>BOND
     1    26    27    1
     2    27    28    1
     3    27    29    1
     4    27    20    1
     5    20    21   ar
     6    21    22   ar
     7    22    23   ar
     8    23    19    1
     9    19     1    1
    10     1     2    1
    11     1     3    1
    12     3     4    1
    13     4     5    1
    14     5    10    1
    15    10    11    2
    16    11    12    1
    17    12    13    2
    18    13    14    1
    19    14    15    2
    20    15    16    1
    21    16    17    2
    22    17    18    1
    23     5     6    1
    24     6     7    1
    25    23    24   ar
    26    24    25   ar
    27    25    20   ar
    28     7     1    1
    29    18    10    1
    30    18    14    1
    31     2     8    1
    32     2     9    1
@<TRIPOS>MOLECULE
*****
 29 32 0 0 0
SMALL
GASTEIGER

@<TRIPOS>ATOM
      1 C          62.5363   89.9724   10.9434 C.3     1  UNL1        0.0510
      2 N          62.1922   90.2123    9.5033 N.3     1  UNL1       -0.3227
      3 C          62.5357   89.3494   12.3080 C.3     1  UNL1        0.0654
      4 C          63.4082   89.9129   13.3901 C.3     1  UNL1        0.2034
      5 N          64.2815   91.0995   13.1078 N.pl3   1  UNL1       -0.1931
      6 C          64.2821   91.7225   11.7433 C.3     1  UNL1        0.2034
      7 C          63.4095   91.1589   10.6611 C.3     1  UNL1        0.0654
      8 H          61.5068   89.5214    9.1979 H       1  UNL1        0.1188
      9 H          63.0347   90.1302    8.9342 H       1  UNL1        0.1188
     10 C          65.1540   91.6630   14.1900 C.2     1  UNL1        0.3205
     11 N          64.5678   91.9919   15.5309 N.2     1  UNL1        0.0097
     12 C          65.4403   92.5553   16.6131 C.2     1  UNL1        0.4717
     13 N          66.8991   92.7900   16.3544 N.2     1  UNL1        0.0158
     14 C          67.4853   92.4611   15.0134 C.2     1  UNL1        0.3714
     15 N          68.8779   92.5835   14.4695 N.2     1  UNL1       -0.0339
     16 C          68.8659   92.0956   13.0511 C.2     1  UNL1        0.2323
     17 C          67.4660   91.6717   12.7184 C.2     1  UNL1        0.0486
     18 C          66.6128   91.8976   13.9312 C.3     1  UNL1        0.2428
     19 C          61.5436   88.8692   10.7257 C.3     1  UNL1        0.0408
     20 C          62.9014   84.5792   10.7742 C.ar    1  UNL1       -0.0228
     21 C          62.7072   85.2896    9.4675 C.ar    1  UNL1       -0.0046
     22 C          62.2546   86.7197    9.4513 C.ar    1  UNL1       -0.0045
     23 C          61.9962   87.4392   10.7418 C.ar    1  UNL1       -0.0209
     24 C          62.1904   86.7287   12.0486 C.ar    1  UNL1       -0.0045
     25 C          62.6430   85.2987   12.0647 C.ar    1  UNL1       -0.0046
     26 C          64.2025   83.4041    9.5800 C.3     1  UNL1        0.0044
     27 C          63.3540   83.1492   10.7905 C.3     1  UNL1        0.0189
     28 C          62.5055   82.8944   12.0008 C.3     1  UNL1        0.0044
     29 C          63.8066   81.7192   10.8066 C.3     1  UNL1        0.0044
@<TRIPOS>BOND
     1    26    27    1
     2    27    28    1
     3    27    29    1
     4    27    20    1
     5    20    21   ar
     6    21    22   ar
     7    22    23   ar
     8    23    19    1
     9    19     1    1
    10     1     2    1
    11     1     3    1
    12     3     4    1
    13     4     5    1
    14     5    10    1
    15    10    11    2
    16    11    12    1
    17    12    13    2
    18    13    14    1
    19    14    15    2
    20    15    16    1
    21    16    17    2
    22    17    18    1
    23     5     6    1
    24     6     7    1
    25    23    24   ar
    26    24    25   ar
    27    25    20   ar
    28     7     1    1
    29    18    10    1
    30    18    14    1
    31     2     8    1
    32     2     9    1
@<TRIPOS>MOLECULE
*****
 29 32 0 0 0
SMALL
GASTEIGER

@<TRIPOS>ATOM
      1 C          63.2984   89.1258   12.8467 C.3     1  UNL1        0.0510
      2 N          64.1931   88.7107   13.9767 N.3     1  UNL1       -0.3227
      3 C          62.5128   90.0071   11.9214 C.3     1  UNL1        0.0654
      4 C          61.7233   89.4016   10.7990 C.3     1  UNL1        0.2034
      5 N          61.7194   87.9145   10.6017 N.pl3   1  UNL1       -0.1931
      6 C          62.5050   87.0332   11.5269 C.3     1  UNL1        0.2034
      7 C          63.2944   87.6388   12.6494 C.3     1  UNL1        0.0654
      8 H          64.4997   89.5378   14.4890 H       1  UNL1        0.1188
      9 H          65.0065   88.2208   13.6041 H       1  UNL1        0.1188
     10 C          60.9299   87.3090    9.4792 C.2     1  UNL1        0.3205
     11 N          59.5062   87.7241    9.2544 N.2     1  UNL1        0.0097
     12 C          58.7167   87.1186    8.1319 C.2     1  UNL1        0.4717
     13 N          59.3510   86.0979    7.2341 N.2     1  UNL1        0.0158
     14 C          60.7748   85.6828    7.4589 C.2     1  UNL1        0.3714
     15 N          61.6608   84.7073    6.7425 N.2     1  UNL1       -0.0339
     16 C          62.9980   84.7099    7.4223 C.2     1  UNL1        0.2323
     17 C          62.9383   85.6871    8.5588 C.2     1  UNL1        0.0486
     18 C          61.5642   86.2883    8.5815 C.3     1  UNL1        0.2428
     19 C          63.6130   90.4686   13.4364 C.3     1  UNL1        0.0408
     20 C          66.0521   93.4382   11.0948 C.ar    1  UNL1       -0.0228
     21 C          66.3088   93.2462   12.5602 C.ar    1  UNL1       -0.0046
     22 C          65.4958   92.2564   13.3407 C.ar    1  UNL1       -0.0045
     23 C          64.4260   91.4585   12.6559 C.ar    1  UNL1       -0.0209
     24 C          64.1693   91.6504   11.1905 C.ar    1  UNL1       -0.0045
     25 C          64.9824   92.6402   10.4100 C.ar    1  UNL1       -0.0046
     26 C          67.5323   93.3020    9.5815 C.3     1  UNL1        0.0044
     27 C          66.8651   94.4280   10.3143 C.3     1  UNL1        0.0189
     28 C          66.1979   95.5539   11.0470 C.3     1  UNL1        0.0044
     29 C          67.6782   95.4178    9.5337 C.3     1  UNL1        0.0044
@<TRIPOS>BOND
     1    26    27    1
     2    27    28    1
     3    27    29    1
     4    27    20    1
     5    20    21   ar
     6    21    22   ar
     7    22    23   ar
     8    23    19    1
     9    19     1    1
    10     1     2    1
    11     1     3    1
    12     3     4    1
    13     4     5    1
    14     5    10    1
    15    10    11    2
    16    11    12    1
    17    12    13    2
    18    13    14    1
    19    14    15    2
    20    15    16    1
    21    16    17    2
    22    17    18    1
    23     5     6    1
    24     6     7    1
    25    23    24   ar
    26    24    25   ar
    27    25    20   ar
    28     7     1    1
    29    18    10    1
    30    18    14    1
    31     2     8    1
    32     2     9    1
