@<TRIPOS>MOLECULE
*****
 48 53 0 0 0
SMALL
GASTEIGER

@<TRIPOS>ATOM
      1 C          64.1045   90.5107   13.6349 C.3     1  UNL1        0.1244
      2 N          64.9875   90.7738   14.8186 N.3     1  UNL1       -0.2823
      3 C          66.0402   91.8295   14.9836 C.3     1  UNL1        0.1560
      4 C          66.4699   92.8828   14.0059 C.2     1  UNL1        0.2457
      5 O          67.5586   93.7041   14.6308 O.2     1  UNL1       -0.2730
      6 N          65.9530   93.1405   12.6216 N.am    1  UNL1       -0.2533
      7 C          64.8787   92.4086   11.8731 C.ar    1  UNL1        0.0518
      8 C          64.6683   92.9914   10.5070 C.ar    1  UNL1        0.0146
      9 C          63.6352   92.4038    9.5920 C.ar    1  UNL1        0.0013
     10 C          62.8125   91.2334   10.0430 C.ar    1  UNL1       -0.0002
     11 C          63.0229   90.6506   11.4090 C.ar    1  UNL1       -0.0014
     12 C          64.0560   91.2382   12.3240 C.ar    1  UNL1        0.0118
     13 H          65.4817   89.8943   14.9692 H       1  UNL1        0.1243
     14 C          63.0301   89.7787   12.8864 C.ar    1  UNL1       -0.0019
     15 C          61.6282   90.3120   12.8740 C.ar    1  UNL1       -0.0026
     16 C          60.5539   89.5802   12.1255 C.ar    1  UNL1       -0.0003
     17 C          60.8817   88.3149   11.3894 C.ar    1  UNL1       -0.0000
     18 C          62.2836   87.7816   11.4018 C.ar    1  UNL1       -0.0003
     19 C          63.3578   88.5135   12.1502 C.ar    1  UNL1       -0.0026
     20 C          62.6113   86.5165   10.6656 C.ar    1  UNL1       -0.0000
     21 C          62.6531   86.5104    9.1662 C.ar    1  UNL1       -0.0000
     22 C          62.9808   85.2452    8.4301 C.ar    1  UNL1       -0.0000
     23 C          63.2667   83.9860    9.1933 C.ar    1  UNL1        0.0000
     24 C          63.2249   83.9920   10.6928 C.ar    1  UNL1       -0.0000
     25 C          62.8972   85.2572   11.4289 C.ar    1  UNL1       -0.0000
     26 C          63.6747   89.4574   14.6126 C.3     1  UNL1        0.2256
     27 C          62.8028   89.8253   15.7764 C.2     1  UNL1        0.0920
     28 O          61.3947   89.3136   15.8498 O.co2   1  UNL1       -0.5455
     29 O          63.3390   90.7049   16.8667 O.co2   1  UNL1       -0.5455
     30 O          64.1169   88.0362   14.4265 O.3     1  UNL1       -0.4426
     31 C          62.5968   86.4884   19.1482 C.3     1  UNL1        0.0523
     32 C          62.8368   86.1897   17.6979 C.ar    1  UNL1        0.0652
     33 C          62.5568   84.8184   17.1582 C.ar    1  UNL1        0.0297
     34 C          62.7968   84.5198   15.7080 C.ar    1  UNL1        0.0652
     35 C          62.5167   83.1485   15.1683 C.3     1  UNL1        0.0523
     36 N          63.3168   85.5923   14.7975 N.ar    1  UNL1       -0.1986
     37 C          63.5969   86.9636   15.3372 C.ar    1  UNL1        0.3196
     38 N          63.3569   87.2623   16.7874 N.ar    1  UNL1       -0.1986
     39 C          66.5953   94.2809   11.8889 C.3     1  UNL1        0.1292
     40 C          67.1998   94.0568   10.5345 C.ar    1  UNL1        0.0531
     41 C          68.0267   92.8324   10.2756 C.ar    1  UNL1        0.1422
     42 F          68.3483   91.7377   11.2494 F       1  UNL1       -0.2043
     43 C          68.6312   92.6082    8.9213 C.ar    1  UNL1        0.0591
     44 C          68.4088   93.6084    7.8258 C.ar    1  UNL1        0.1446
     45 F          69.0133   93.3843    6.4714 F       1  UNL1       -0.2040
     46 C          67.5819   94.8328    8.0847 C.ar    1  UNL1        0.0591
     47 C          66.9773   95.0570    9.4390 C.ar    1  UNL1        0.1422
     48 F          66.1504   96.2814    9.6979 F       1  UNL1       -0.2043
@<TRIPOS>UNITY_ATOM_ATTR
28 1
charge -1
@<TRIPOS>BOND
     1    31    32    1
     2    32    33   ar
     3    33    34   ar
     4    34    35    1
     5    34    36   ar
     6    36    37   ar
     7    37    30    1
     8    26    30    1
     9    26    27    1
    10    27    28   ar
    11    27    29   ar
    12    26     1    1
    13     1    14    1
    14    14    15   ar
    15    15    16   ar
    16    16    17   ar
    17    17    18   ar
    18    18    20    1
    19    20    21   ar
    20    21    22   ar
    21    22    23   ar
    22    23    24   ar
    23    24    25   ar
    24    18    19   ar
    25     1     2    1
    26     2     3    1
    27     3     4    1
    28     4     5    2
    29     4     6   am
    30     6    39    1
    31    39    40    1
    32    40    41   ar
    33    41    42    1
    34    41    43   ar
    35    43    44   ar
    36    44    45    1
    37    44    46   ar
    38    46    47   ar
    39    47    48    1
    40     6     7    1
    41     7     8   ar
    42     8     9   ar
    43     9    10   ar
    44    10    11   ar
    45    11    12   ar
    46    37    38   ar
    47    38    32   ar
    48    12     1    1
    49    19    14   ar
    50    47    40   ar
    51    12     7   ar
    52    25    20   ar
    53     2    13    1
@<TRIPOS>MOLECULE
*****
 48 53 0 0 0
SMALL
GASTEIGER

@<TRIPOS>ATOM
      1 C          64.1004   90.5087   13.6319 C.3     1  UNL1        0.1244
      2 N          64.9804   90.7727   14.8175 N.3     1  UNL1       -0.2823
      3 C          66.0322   91.8291   14.9847 C.3     1  UNL1        0.1560
      4 C          66.4636   92.8823   14.0077 C.2     1  UNL1        0.2457
      5 O          67.5502   93.7044   14.6348 O.2     1  UNL1       -0.2730
      6 N          65.9497   93.1392   12.6221 N.am    1  UNL1       -0.2533
      7 C          64.8776   92.4065   11.8713 C.ar    1  UNL1        0.0518
      8 C          64.6700   92.9887   10.5046 C.ar    1  UNL1        0.0146
      9 C          63.6393   92.4002    9.5873 C.ar    1  UNL1        0.0013
     10 C          62.8163   91.2295   10.0367 C.ar    1  UNL1       -0.0002
     11 C          63.0239   90.6472   11.4034 C.ar    1  UNL1       -0.0014
     12 C          64.0545   91.2358   12.3207 C.ar    1  UNL1        0.0118
     13 H          65.4749   89.8935   14.9696 H       1  UNL1        0.1243
     14 C          63.0282   89.7758   12.8811 C.ar    1  UNL1       -0.0019
     15 C          61.6265   90.3094   12.8637 C.ar    1  UNL1       -0.0026
     16 C          60.5543   89.5766   12.1129 C.ar    1  UNL1       -0.0003
     17 C          60.8841   88.3102   11.3796 C.ar    1  UNL1       -0.0000
     18 C          62.2859   87.7768   11.3971 C.ar    1  UNL1       -0.0003
     19 C          63.3579   88.5095   12.1478 C.ar    1  UNL1       -0.0026
     20 C          62.6156   86.5104   10.6638 C.ar    1  UNL1       -0.0000
     21 C          62.8979   85.2520   11.4297 C.ar    1  UNL1       -0.0000
     22 C          63.2276   83.9857   10.6964 C.ar    1  UNL1       -0.0000
     23 C          63.2750   83.9777    9.1972 C.ar    1  UNL1        0.0000
     24 C          62.9927   85.2362    8.4312 C.ar    1  UNL1       -0.0000
     25 C          62.6630   86.5025    9.1645 C.ar    1  UNL1       -0.0000
     26 C          63.6690   89.4554   14.6090 C.3     1  UNL1        0.2256
     27 C          62.7967   89.8238   15.7723 C.2     1  UNL1        0.0920
     28 O          63.3334   90.7017   16.8638 O.co2   1  UNL1       -0.5455
     29 O          61.3878   89.3142   15.8443 O.co2   1  UNL1       -0.5455
     30 O          64.1099   88.0339   14.4226 O.3     1  UNL1       -0.4426
     31 C          62.5233   83.1444   15.1816 C.3     1  UNL1        0.0523
     32 C          62.8007   84.5180   15.7167 C.ar    1  UNL1        0.0652
     33 C          62.5623   84.8204   17.1665 C.ar    1  UNL1        0.0297
     34 C          62.8397   86.1939   17.7016 C.ar    1  UNL1        0.0652
     35 C          62.6013   86.4964   19.1513 C.3     1  UNL1        0.0523
     36 N          63.3555   87.2651   16.7870 N.ar    1  UNL1       -0.1986
     37 C          63.5940   86.9626   15.3372 C.ar    1  UNL1        0.3196
     38 N          63.3166   85.5891   14.8021 N.ar    1  UNL1       -0.1986
     39 C          66.5930   94.2798   11.8905 C.3     1  UNL1        0.1292
     40 C          67.1972   94.0565   10.5358 C.ar    1  UNL1        0.0531
     41 C          68.0217   92.8309   10.2752 C.ar    1  UNL1        0.1422
     42 F          68.3410   91.7341   11.2474 F       1  UNL1       -0.2043
     43 C          68.6259   92.6075    8.9206 C.ar    1  UNL1        0.0591
     44 C          68.4056   93.6098    7.8266 C.ar    1  UNL1        0.1446
     45 F          69.0098   93.3864    6.4719 F       1  UNL1       -0.2040
     46 C          67.5810   94.8354    8.0872 C.ar    1  UNL1        0.0591
     47 C          66.9768   95.0588    9.4418 C.ar    1  UNL1        0.1422
     48 F          66.1522   96.2844    9.7024 F       1  UNL1       -0.2043
@<TRIPOS>UNITY_ATOM_ATTR
28 1
charge -1
@<TRIPOS>BOND
     1    31    32    1
     2    32    33   ar
     3    33    34   ar
     4    34    35    1
     5    34    36   ar
     6    36    37   ar
     7    37    30    1
     8    26    30    1
     9    26    27    1
    10    27    28   ar
    11    27    29   ar
    12    26     1    1
    13     1    14    1
    14    14    15   ar
    15    15    16   ar
    16    16    17   ar
    17    17    18   ar
    18    18    20    1
    19    20    21   ar
    20    21    22   ar
    21    22    23   ar
    22    23    24   ar
    23    24    25   ar
    24    18    19   ar
    25     1     2    1
    26     2     3    1
    27     3     4    1
    28     4     5    2
    29     4     6   am
    30     6    39    1
    31    39    40    1
    32    40    41   ar
    33    41    42    1
    34    41    43   ar
    35    43    44   ar
    36    44    45    1
    37    44    46   ar
    38    46    47   ar
    39    47    48    1
    40     6     7    1
    41     7     8   ar
    42     8     9   ar
    43     9    10   ar
    44    10    11   ar
    45    11    12   ar
    46    37    38   ar
    47    38    32   ar
    48    12     1    1
    49    19    14   ar
    50    47    40   ar
    51    12     7   ar
    52    25    20   ar
    53     2    13    1
@<TRIPOS>MOLECULE
*****
 48 53 0 0 0
SMALL
GASTEIGER

@<TRIPOS>ATOM
      1 C          63.6750   89.5981   13.3176 C.3     1  UNL1        0.1244
      2 N          64.5750   89.4590   14.5094 N.3     1  UNL1       -0.2823
      3 C          65.7583   90.2983   14.8907 C.3     1  UNL1        0.1560
      4 C          66.3339   91.4839   14.1742 C.2     1  UNL1        0.2457
      5 O          67.5173   91.9855   14.9474 O.2     1  UNL1       -0.2730
      6 N          65.8681   92.1229   12.8996 N.am    1  UNL1       -0.2533
      7 C          64.7119   91.7344   12.0266 C.ar    1  UNL1        0.0518
      8 C          64.5933   92.6418   10.8381 C.ar    1  UNL1        0.0146
      9 C          63.4987   92.4255    9.8356 C.ar    1  UNL1        0.0013
     10 C          62.5226   91.3018   10.0217 C.ar    1  UNL1       -0.0002
     11 C          62.6412   90.3944   11.2101 C.ar    1  UNL1       -0.0014
     12 C          63.7358   90.6107   12.2126 C.ar    1  UNL1        0.0118
     13 H          64.9455   88.5112   14.4406 H       1  UNL1        0.1243
     14 C          62.5187   89.2094   12.4445 C.ar    1  UNL1       -0.0019
     15 C          61.1662   89.8145   12.6778 C.ar    1  UNL1       -0.0026
     16 C          60.0099   89.4259   11.8048 C.ar    1  UNL1       -0.0003
     17 C          60.2063   88.4321   10.6985 C.ar    1  UNL1       -0.0000
     18 C          61.5589   87.8270   10.4653 C.ar    1  UNL1       -0.0003
     19 C          62.7150   88.2156   11.3382 C.ar    1  UNL1       -0.0026
     20 C          61.7552   86.8332    9.3590 C.ar    1  UNL1       -0.0000
     21 C          63.0340   86.0544    9.2686 C.ar    1  UNL1       -0.0000
     22 C          63.2303   85.0606    8.1623 C.ar    1  UNL1       -0.0000
     23 C          62.1480   84.8456    7.1464 C.ar    1  UNL1        0.0000
     24 C          60.8691   85.6244    7.2368 C.ar    1  UNL1       -0.0000
     25 C          60.6727   86.6182    8.3430 C.ar    1  UNL1       -0.0000
     26 C          63.0994   88.4125   14.0340 C.3     1  UNL1        0.2256
     27 C          62.8639   88.4724   15.5141 C.2     1  UNL1        0.0920
     28 O          63.3327   87.3516   16.3941 O.co2   1  UNL1       -0.5455
     29 O          62.1597   89.6529   16.1144 O.co2   1  UNL1       -0.5455
     30 O          62.7594   87.1671   13.2702 O.3     1  UNL1       -0.4426
     31 C          62.1089   82.1306   14.3706 C.3     1  UNL1        0.0523
     32 C          63.0034   83.3284   14.2473 C.ar    1  UNL1        0.0652
     33 C          64.4673   83.2057   14.5510 C.ar    1  UNL1        0.0297
     34 C          65.3618   84.4034   14.4278 C.ar    1  UNL1        0.0652
     35 C          66.8257   84.2807   14.7315 C.3     1  UNL1        0.0523
     36 N          64.7925   85.7239   14.0008 N.ar    1  UNL1       -0.1986
     37 C          63.3287   85.8466   13.6971 C.ar    1  UNL1        0.3196
     38 N          62.4342   84.6488   13.8204 N.ar    1  UNL1       -0.1986
     39 C          66.6638   93.3073   12.4368 C.3     1  UNL1        0.1292
     40 C          67.2090   93.3450   11.0398 C.ar    1  UNL1        0.0531
     41 C          66.8559   94.4819   10.1274 C.ar    1  UNL1        0.1422
     42 F          65.9778   95.6557   10.4457 F       1  UNL1       -0.2043
     43 C          67.4010   94.5197    8.7305 C.ar    1  UNL1        0.0591
     44 C          68.2993   93.4204    8.2460 C.ar    1  UNL1        0.1446
     45 F          68.8445   93.4582    6.8491 F       1  UNL1       -0.2040
     46 C          68.6524   92.2835    9.1585 C.ar    1  UNL1        0.0591
     47 C          68.1073   92.2457   10.5554 C.ar    1  UNL1        0.1422
     48 F          68.4605   91.1088   11.4679 F       1  UNL1       -0.2043
@<TRIPOS>UNITY_ATOM_ATTR
28 1
charge -1
@<TRIPOS>BOND
     1    31    32    1
     2    32    33   ar
     3    33    34   ar
     4    34    35    1
     5    34    36   ar
     6    36    37   ar
     7    37    30    1
     8    26    30    1
     9    26    27    1
    10    27    28   ar
    11    27    29   ar
    12    26     1    1
    13     1    14    1
    14    14    15   ar
    15    15    16   ar
    16    16    17   ar
    17    17    18   ar
    18    18    20    1
    19    20    21   ar
    20    21    22   ar
    21    22    23   ar
    22    23    24   ar
    23    24    25   ar
    24    18    19   ar
    25     1     2    1
    26     2     3    1
    27     3     4    1
    28     4     5    2
    29     4     6   am
    30     6    39    1
    31    39    40    1
    32    40    41   ar
    33    41    42    1
    34    41    43   ar
    35    43    44   ar
    36    44    45    1
    37    44    46   ar
    38    46    47   ar
    39    47    48    1
    40     6     7    1
    41     7     8   ar
    42     8     9   ar
    43     9    10   ar
    44    10    11   ar
    45    11    12   ar
    46    37    38   ar
    47    38    32   ar
    48    12     1    1
    49    19    14   ar
    50    47    40   ar
    51    12     7   ar
    52    25    20   ar
    53     2    13    1
@<TRIPOS>MOLECULE
*****
 48 53 0 0 0
SMALL
GASTEIGER

@<TRIPOS>ATOM
      1 C          63.6756   89.6028   13.3160 C.3     1  UNL1        0.1244
      2 N          64.5764   89.4659   14.5076 N.3     1  UNL1       -0.2823
      3 C          65.7595   90.3063   14.8870 C.3     1  UNL1        0.1560
      4 C          66.3342   91.4911   14.1686 C.2     1  UNL1        0.2457
      5 O          67.5178   91.9944   14.9404 O.2     1  UNL1       -0.2730
      6 N          65.8675   92.1281   12.8932 N.am    1  UNL1       -0.2533
      7 C          64.7110   91.7377   12.0213 C.ar    1  UNL1        0.0518
      8 C          64.5914   92.6433   10.8316 C.ar    1  UNL1        0.0146
      9 C          63.4964   92.4251    9.8300 C.ar    1  UNL1        0.0013
     10 C          62.5209   91.3012   10.0182 C.ar    1  UNL1       -0.0002
     11 C          62.6405   90.3956   11.2079 C.ar    1  UNL1       -0.0014
     12 C          63.7355   90.6138   12.2095 C.ar    1  UNL1        0.0118
     13 H          64.9473   88.5181   14.4400 H       1  UNL1        0.1243
     14 C          62.5191   89.2124   12.4441 C.ar    1  UNL1       -0.0019
     15 C          61.1659   89.8156   12.6786 C.ar    1  UNL1       -0.0026
     16 C          60.0094   89.4252   11.8068 C.ar    1  UNL1       -0.0003
     17 C          60.2062   88.4315   10.7004 C.ar    1  UNL1       -0.0000
     18 C          61.5594   87.8283   10.4660 C.ar    1  UNL1       -0.0003
     19 C          62.7158   88.2188   11.3378 C.ar    1  UNL1       -0.0026
     20 C          61.7561   86.8347    9.3596 C.ar    1  UNL1       -0.0000
     21 C          60.6737   86.6192    8.3438 C.ar    1  UNL1       -0.0000
     22 C          60.8704   85.6256    7.2374 C.ar    1  UNL1       -0.0000
     23 C          62.1495   84.8474    7.1469 C.ar    1  UNL1        0.0000
     24 C          63.2320   85.0628    8.1628 C.ar    1  UNL1       -0.0000
     25 C          63.0353   86.0565    9.2691 C.ar    1  UNL1       -0.0000
     26 C          63.1010   88.4180   14.0344 C.3     1  UNL1        0.2256
     27 C          62.8683   88.4792   15.5150 C.2     1  UNL1        0.0920
     28 O          63.3313   87.3554   16.3941 O.co2   1  UNL1       -0.5455
     29 O          62.1726   89.6641   16.1165 O.co2   1  UNL1       -0.5455
     30 O          62.7591   87.1722   13.2723 O.3     1  UNL1       -0.4426
     31 C          66.8226   84.2829   14.7351 C.3     1  UNL1        0.0523
     32 C          65.3589   84.4069   14.4318 C.ar    1  UNL1        0.0652
     33 C          64.4631   83.2102   14.5565 C.ar    1  UNL1        0.0297
     34 C          62.9993   83.3342   14.2532 C.ar    1  UNL1        0.0652
     35 C          62.1035   82.1375   14.3780 C.3     1  UNL1        0.0523
     36 N          62.4313   84.6548   13.8252 N.ar    1  UNL1       -0.1986
     37 C          63.3272   85.8515   13.7004 C.ar    1  UNL1        0.3196
     38 N          64.7909   85.7275   14.0037 N.ar    1  UNL1       -0.1986
     39 C          66.6624   93.3121   12.4283 C.3     1  UNL1        0.1292
     40 C          67.2087   93.3470   11.0317 C.ar    1  UNL1        0.0531
     41 C          66.8553   94.4816   10.1164 C.ar    1  UNL1        0.1422
     42 F          65.9760   95.6554   10.4313 F       1  UNL1       -0.2043
     43 C          67.4015   94.5166    8.7198 C.ar    1  UNL1        0.0591
     44 C          68.3011   93.4170    8.2385 C.ar    1  UNL1        0.1446
     45 F          68.8473   93.4520    6.8419 F       1  UNL1       -0.2040
     46 C          68.6544   92.2824    9.1538 C.ar    1  UNL1        0.0591
     47 C          68.1082   92.2474   10.5504 C.ar    1  UNL1        0.1422
     48 F          68.4616   91.1128   11.4658 F       1  UNL1       -0.2043
@<TRIPOS>UNITY_ATOM_ATTR
28 1
charge -1
@<TRIPOS>BOND
     1    31    32    1
     2    32    33   ar
     3    33    34   ar
     4    34    35    1
     5    34    36   ar
     6    36    37   ar
     7    37    30    1
     8    26    30    1
     9    26    27    1
    10    27    28   ar
    11    27    29   ar
    12    26     1    1
    13     1    14    1
    14    14    15   ar
    15    15    16   ar
    16    16    17   ar
    17    17    18   ar
    18    18    20    1
    19    20    21   ar
    20    21    22   ar
    21    22    23   ar
    22    23    24   ar
    23    24    25   ar
    24    18    19   ar
    25     1     2    1
    26     2     3    1
    27     3     4    1
    28     4     5    2
    29     4     6   am
    30     6    39    1
    31    39    40    1
    32    40    41   ar
    33    41    42    1
    34    41    43   ar
    35    43    44   ar
    36    44    45    1
    37    44    46   ar
    38    46    47   ar
    39    47    48    1
    40     6     7    1
    41     7     8   ar
    42     8     9   ar
    43     9    10   ar
    44    10    11   ar
    45    11    12   ar
    46    37    38   ar
    47    38    32   ar
    48    12     1    1
    49    19    14   ar
    50    47    40   ar
    51    12     7   ar
    52    25    20   ar
    53     2    13    1
@<TRIPOS>MOLECULE
*****
 48 53 0 0 0
SMALL
GASTEIGER

@<TRIPOS>ATOM
      1 C          63.6795   89.6226   13.3416 C.3     1  UNL1        0.1244
      2 N          64.5764   89.4874   14.5362 N.3     1  UNL1       -0.2823
      3 C          65.7616   90.3250   14.9153 C.3     1  UNL1        0.1560
      4 C          66.3426   91.5046   14.1935 C.2     1  UNL1        0.2457
      5 O          67.5260   92.0067   14.9664 O.2     1  UNL1       -0.2730
      6 N          65.8818   92.1379   12.9142 N.am    1  UNL1       -0.2533
      7 C          64.7262   91.7482   12.0408 C.ar    1  UNL1        0.0518
      8 C          64.6132   92.6493   10.8470 C.ar    1  UNL1        0.0146
      9 C          63.5201   92.4309    9.8434 C.ar    1  UNL1        0.0013
     10 C          62.5400   91.3114   10.0335 C.ar    1  UNL1       -0.0002
     11 C          62.6530   90.4104   11.2274 C.ar    1  UNL1       -0.0014
     12 C          63.7461   90.6287   12.2310 C.ar    1  UNL1        0.0118
     13 H          64.9440   88.5379   14.4736 H       1  UNL1        0.1243
     14 C          62.5238   89.2328   12.4681 C.ar    1  UNL1       -0.0019
     15 C          61.1716   89.8397   12.6983 C.ar    1  UNL1       -0.0026
     16 C          60.0160   89.4500   11.8250 C.ar    1  UNL1       -0.0003
     17 C          60.2128   88.4531   10.7214 C.ar    1  UNL1       -0.0000
     18 C          61.5651   87.8462   10.4913 C.ar    1  UNL1       -0.0003
     19 C          62.7206   88.2360   11.3646 C.ar    1  UNL1       -0.0026
     20 C          61.7618   86.8495    9.3878 C.ar    1  UNL1       -0.0000
     21 C          60.6806   86.6333    8.3708 C.ar    1  UNL1       -0.0000
     22 C          60.8773   85.6365    7.2672 C.ar    1  UNL1       -0.0000
     23 C          62.1552   84.8559    7.1807 C.ar    1  UNL1        0.0000
     24 C          63.2365   85.0720    8.1977 C.ar    1  UNL1       -0.0000
     25 C          63.0398   86.0688    9.3012 C.ar    1  UNL1       -0.0000
     26 C          63.0985   88.4430   14.0634 C.3     1  UNL1        0.2256
     27 C          62.8745   88.5063   15.5452 C.2     1  UNL1        0.0920
     28 O          62.2311   89.7162   16.1554 O.co2   1  UNL1       -0.5455
     29 O          63.2940   87.3599   16.4168 O.co2   1  UNL1       -0.5455
     30 O          62.7415   87.2001   13.3033 O.3     1  UNL1       -0.4426
     31 C          66.8501   84.3717   14.7593 C.3     1  UNL1        0.0523
     32 C          65.3902   84.4672   14.4286 C.ar    1  UNL1        0.0652
     33 C          64.5245   83.2440   14.4952 C.ar    1  UNL1        0.0297
     34 C          63.0646   83.3394   14.1645 C.ar    1  UNL1        0.0652
     35 C          62.1989   82.1162   14.2310 C.3     1  UNL1        0.0523
     36 N          62.4702   84.6581   13.7672 N.ar    1  UNL1       -0.1986
     37 C          63.3359   85.8813   13.7006 C.ar    1  UNL1        0.3196
     38 N          64.7959   85.7858   14.0313 N.ar    1  UNL1       -0.1986
     39 C          66.6824   93.3170   12.4465 C.3     1  UNL1        0.1292
     40 C          67.2196   93.3510   11.0464 C.ar    1  UNL1        0.0531
     41 C          68.0935   92.2369   10.5512 C.ar    1  UNL1        0.1422
     42 F          68.5269   91.0215   11.3159 F       1  UNL1       -0.2043
     43 C          68.6307   92.2708    9.1512 C.ar    1  UNL1        0.0591
     44 C          68.2941   93.4188    8.2463 C.ar    1  UNL1        0.1446
     45 F          68.8314   93.4527    6.8462 F       1  UNL1       -0.2040
     46 C          67.4203   94.5328    8.7415 C.ar    1  UNL1        0.0591
     47 C          66.8830   94.4990   10.1415 C.ar    1  UNL1        0.1422
     48 F          66.0092   95.6130   10.6367 F       1  UNL1       -0.2043
@<TRIPOS>UNITY_ATOM_ATTR
28 1
charge -1
@<TRIPOS>BOND
     1    31    32    1
     2    32    33   ar
     3    33    34   ar
     4    34    35    1
     5    34    36   ar
     6    36    37   ar
     7    37    30    1
     8    26    30    1
     9    26    27    1
    10    27    28   ar
    11    27    29   ar
    12    26     1    1
    13     1    14    1
    14    14    15   ar
    15    15    16   ar
    16    16    17   ar
    17    17    18   ar
    18    18    20    1
    19    20    21   ar
    20    21    22   ar
    21    22    23   ar
    22    23    24   ar
    23    24    25   ar
    24    18    19   ar
    25     1     2    1
    26     2     3    1
    27     3     4    1
    28     4     5    2
    29     4     6   am
    30     6    39    1
    31    39    40    1
    32    40    41   ar
    33    41    42    1
    34    41    43   ar
    35    43    44   ar
    36    44    45    1
    37    44    46   ar
    38    46    47   ar
    39    47    48    1
    40     6     7    1
    41     7     8   ar
    42     8     9   ar
    43     9    10   ar
    44    10    11   ar
    45    11    12   ar
    46    37    38   ar
    47    38    32   ar
    48    12     1    1
    49    19    14   ar
    50    47    40   ar
    51    12     7   ar
    52    25    20   ar
    53     2    13    1
