@<TRIPOS>MOLECULE
*****
 32 35 0 0 0
SMALL
GASTEIGER

@<TRIPOS>ATOM
      1 C          65.3581   91.9835   12.7180 C.3     1  UNL1        0.1092
      2 C          65.6206   92.9139   11.5711 C.3     1  UNL1        0.1598
      3 O          64.7490   92.8652   10.3513 O.3     1  UNL1       -0.3507
      4 C          63.6149   91.8862   10.2784 C.3     1  UNL1        0.1634
      5 C          63.3524   90.9558   11.4253 C.3     1  UNL1        0.1455
      6 N          64.2240   91.0045   12.6451 N.3     1  UNL1       -0.1499
      7 C          66.1402   93.1979   14.8775 C.3     1  UNL1        0.0015
      8 C          66.2297   92.0322   13.9378 C.3     1  UNL1        0.0189
      9 C          67.1908   90.9151   14.2180 C.3     1  UNL1        0.0015
     10 C          62.2183   89.9767   11.3525 C.3     1  UNL1        0.1550
     11 C          60.8867   89.3398   11.6191 C.3     1  UNL1        0.0453
     12 C          61.2556   90.6219   12.3049 C.3     1  UNL1        0.0453
     13 O          62.7872   88.9916   10.3748 O.3     1  UNL1       -0.4403
     14 C          62.0680   87.7034   10.1037 C.2     1  UNL1        0.4048
     15 O          62.4704   86.4531   10.8280 O.2     1  UNL1       -0.2262
     16 N          60.9465   87.6656    9.1084 N.am    1  UNL1       -0.2435
     17 C          60.1393   86.4577    8.7350 C.3     1  UNL1        0.0994
     18 C          59.1292   86.8747    7.7075 C.3     1  UNL1        0.0526
     19 C          59.3121   88.3402    7.4458 C.3     1  UNL1        0.1321
     20 O          58.5122   89.1712    6.4867 O.3     1  UNL1       -0.3827
     21 C          60.4352   88.8291    8.3116 C.3     1  UNL1        0.1259
     22 H          58.8319   90.0867    6.5076 H       1  UNL1        0.2104
     23 S          63.9615   90.0741   13.7921 S.O2    1  UNL1        0.0635
     24 O          63.4667   91.2270   14.6141 O.2     1  UNL1       -0.1528
     25 O          64.3365   88.8646   13.3240 O.2     1  UNL1       -0.1528
     26 C          63.6990   89.1437   14.9390 C.ar    1  UNL1        0.1223
     27 C          64.0139   87.6830   14.8072 C.ar    1  UNL1        0.0208
     28 C          63.7514   86.7527   15.9541 C.ar    1  UNL1        0.0128
     29 C          63.1739   87.2830   17.2329 C.ar    1  UNL1        0.0578
     30 CL         62.9114   86.3526   18.3799 Cl      1  UNL1       -0.0822
     31 C          62.8590   88.7436   17.3648 C.ar    1  UNL1        0.0128
     32 C          63.1215   89.6740   16.2179 C.ar    1  UNL1        0.0208
@<TRIPOS>BOND
     1     7     8    1
     2     8     9    1
     3     1     8    1
     4     1     2    1
     5     2     3    1
     6     3     4    1
     7     4     5    1
     8     5    10    1
     9    10    13    1
    10    13    14    1
    11    14    15    2
    12    14    16   am
    13    16    17    1
    14    17    18    1
    15    18    19    1
    16    19    20    1
    17    19    21    1
    18    10    11    1
    19    11    12    1
    20     5     6    1
    21     6    23    1
    22    23    24    2
    23    23    25    2
    24    23    26    1
    25    26    27   ar
    26    27    28   ar
    27    28    29   ar
    28    29    30    1
    29    29    31   ar
    30    31    32   ar
    31     6     1    1
    32    32    26   ar
    33    12    10    1
    34    21    16    1
    35    20    22    1
@<TRIPOS>MOLECULE
*****
 32 35 0 0 0
SMALL
GASTEIGER

@<TRIPOS>ATOM
      1 C          65.3014   91.8197   12.8122 C.3     1  UNL1        0.1092
      2 C          65.5628   92.7147   11.6373 C.3     1  UNL1        0.1598
      3 O          64.6925   92.6264   10.4188 O.3     1  UNL1       -0.3507
      4 C          63.5607   91.6430   10.3753 C.3     1  UNL1        0.1634
      5 C          63.2992   90.7480   11.5502 C.3     1  UNL1        0.1455
      6 N          64.1696   90.8363   12.7687 N.3     1  UNL1       -0.1499
      7 C          65.5858   92.3438   15.3409 C.3     1  UNL1        0.0015
      8 C          66.1717   91.9080   14.0307 C.3     1  UNL1        0.0189
      9 C          67.6280   91.5606   13.9390 C.3     1  UNL1        0.0015
     10 C          62.1673   89.7646   11.5067 C.3     1  UNL1        0.1550
     11 C          60.7690   89.2274   11.4290 C.3     1  UNL1        0.0453
     12 C          61.0067   90.7080   11.3931 C.3     1  UNL1        0.0453
     13 O          62.9349   88.4796   11.6053 O.3     1  UNL1       -0.4403
     14 C          62.5206   87.2938   10.7854 C.2     1  UNL1        0.4048
     15 O          61.9854   87.4912    9.3981 O.2     1  UNL1       -0.2262
     16 N          62.6415   85.9106   11.3528 N.am    1  UNL1       -0.2435
     17 C          62.2691   84.6358   10.6554 C.3     1  UNL1        0.0994
     18 C          62.5535   83.4966   11.5888 C.3     1  UNL1        0.0526
     19 C          63.1017   84.0672   12.8631 C.3     1  UNL1        0.1321
     20 O          63.5217   83.2835   14.0712 O.3     1  UNL1       -0.3827
     21 C          63.1561   85.5591   12.7172 C.3     1  UNL1        0.1259
     22 H          63.8394   83.8918   14.7568 H       1  UNL1        0.2104
     23 S          63.9080   89.9412   13.9437 S.O2    1  UNL1        0.0635
     24 O          62.9191   90.9336   14.4795 O.2     1  UNL1       -0.1528
     25 O          64.7147   88.8797   13.7316 O.2     1  UNL1       -0.1528
     26 C          63.6465   89.0462   15.1186 C.ar    1  UNL1        0.1223
     27 C          63.1074   89.6218   16.3946 C.ar    1  UNL1        0.0208
     28 C          62.8459   88.7268   17.5695 C.ar    1  UNL1        0.0128
     29 C          63.1234   87.2562   17.4685 C.ar    1  UNL1        0.0578
     30 CL         62.8619   86.3611   18.6435 Cl      1  UNL1       -0.0822
     31 C          63.6625   86.6806   16.1926 C.ar    1  UNL1        0.0128
     32 C          63.9241   87.5756   15.0176 C.ar    1  UNL1        0.0208
@<TRIPOS>BOND
     1     7     8    1
     2     8     9    1
     3     1     8    1
     4     1     2    1
     5     2     3    1
     6     3     4    1
     7     4     5    1
     8     5    10    1
     9    10    13    1
    10    13    14    1
    11    14    15    2
    12    14    16   am
    13    16    17    1
    14    17    18    1
    15    18    19    1
    16    19    20    1
    17    19    21    1
    18    10    11    1
    19    11    12    1
    20     5     6    1
    21     6    23    1
    22    23    24    2
    23    23    25    2
    24    23    26    1
    25    26    27   ar
    26    27    28   ar
    27    28    29   ar
    28    29    30    1
    29    29    31   ar
    30    31    32   ar
    31     6     1    1
    32    32    26   ar
    33    12    10    1
    34    21    16    1
    35    20    22    1
@<TRIPOS>MOLECULE
*****
 32 35 0 0 0
SMALL
GASTEIGER

@<TRIPOS>ATOM
      1 C          63.7261   94.6605   -1.5931 C.3     1  UNL1        0.1092
      2 C          65.0163   95.1399   -0.9969 C.3     1  UNL1        0.1598
      3 O          65.0617   95.5835    0.4352 O.3     1  UNL1       -0.3507
      4 C          63.8168   95.5478    1.2712 C.3     1  UNL1        0.1634
      5 C          62.5266   95.0684    0.6751 C.3     1  UNL1        0.1455
      6 N          62.4812   94.6247   -0.7571 N.3     1  UNL1       -0.1499
      7 C          63.9099   92.7754   -3.3715 C.3     1  UNL1        0.0015
      8 C          63.6808   94.2168   -3.0253 C.3     1  UNL1        0.0189
      9 C          63.4063   95.2145   -4.1112 C.3     1  UNL1        0.0015
     10 C          61.2816   95.0327    1.5111 C.3     1  UNL1        0.1550
     11 C          60.1296   95.5094    2.3450 C.3     1  UNL1        0.0453
     12 C          61.1167   96.4962    1.7956 C.3     1  UNL1        0.0453
     13 O          61.0142   93.5567    1.5169 O.3     1  UNL1       -0.4403
     14 C          61.4871   92.7134    2.6637 C.2     1  UNL1        0.4048
     15 O          62.9511   92.4366    2.8373 O.2     1  UNL1       -0.2262
     16 N          60.4961   92.1468    3.6368 N.am    1  UNL1       -0.2435
     17 C          60.8183   91.2906    4.8255 C.3     1  UNL1        0.0994
     18 C          59.5302   90.9517    5.5154 C.3     1  UNL1        0.0526
     19 C          58.4120   91.5984    4.7531 C.3     1  UNL1        0.1321
     20 O          56.9529   91.5202    5.0922 O.3     1  UNL1       -0.3827
     21 C          59.0089   92.3370    3.5920 C.3     1  UNL1        0.1259
     22 H          56.4419   92.0253    4.4406 H       1  UNL1        0.2104
     23 S          61.1909   94.1453   -1.3533 S.O2    1  UNL1        0.0635
     24 O          60.8180   95.5601   -1.6838 O.2     1  UNL1       -0.1528
     25 O          61.2356   92.8054   -1.1945 O.2     1  UNL1       -0.1528
     26 C          59.9007   93.6660   -1.9494 C.ar    1  UNL1        0.1223
     27 C          58.8588   93.0347   -1.0741 C.ar    1  UNL1        0.0208
     28 C          57.5686   92.5553   -1.6702 C.ar    1  UNL1        0.0128
     29 C          57.3201   92.7073   -3.1417 C.ar    1  UNL1        0.0578
     30 CL         56.0298   92.2279   -3.7378 Cl      1  UNL1       -0.0822
     31 C          58.3618   93.3386   -4.0170 C.ar    1  UNL1        0.0128
     32 C          59.6521   93.8179   -3.4209 C.ar    1  UNL1        0.0208
@<TRIPOS>BOND
     1     7     8    1
     2     8     9    1
     3     1     8    1
     4     1     2    1
     5     2     3    1
     6     3     4    1
     7     4     5    1
     8     5    10    1
     9    10    13    1
    10    13    14    1
    11    14    15    2
    12    14    16   am
    13    16    17    1
    14    17    18    1
    15    18    19    1
    16    19    20    1
    17    19    21    1
    18    10    11    1
    19    11    12    1
    20     5     6    1
    21     6    23    1
    22    23    24    2
    23    23    25    2
    24    23    26    1
    25    26    27   ar
    26    27    28   ar
    27    28    29   ar
    28    29    30    1
    29    29    31   ar
    30    31    32   ar
    31     6     1    1
    32    32    26   ar
    33    12    10    1
    34    21    16    1
    35    20    22    1
@<TRIPOS>MOLECULE
*****
 32 35 0 0 0
SMALL
GASTEIGER

@<TRIPOS>ATOM
      1 C          63.3716   85.7577   12.6115 C.3     1  UNL1        0.1092
      2 C          64.2388   85.4389   13.7931 C.3     1  UNL1        0.1598
      3 O          64.7323   86.5428   14.6807 O.3     1  UNL1       -0.3507
      4 C          64.3587   87.9654   14.3867 C.3     1  UNL1        0.1634
      5 C          63.4916   88.2842   13.2051 C.3     1  UNL1        0.1455
      6 N          62.9980   87.1803   12.3174 N.3     1  UNL1       -0.1499
      7 C          63.1804   84.6807   10.2549 C.3     1  UNL1        0.0015
      8 C          62.8781   84.6538   11.7238 C.3     1  UNL1        0.0189
      9 C          62.0822   83.5231   12.3051 C.3     1  UNL1        0.0015
     10 C          63.1179   89.7069   12.9110 C.3     1  UNL1        0.1550
     11 C          62.2798   90.9416   12.7593 C.3     1  UNL1        0.0453
     12 C          61.6506   89.6598   13.2189 C.3     1  UNL1        0.0453
     13 O          64.4555   90.2479   12.5009 O.3     1  UNL1       -0.4403
     14 C          64.9969   91.4845   13.1551 C.2     1  UNL1        0.4048
     15 O          65.0238   91.5910   14.6511 O.2     1  UNL1       -0.2262
     16 N          65.5113   92.6143   12.3134 N.am    1  UNL1       -0.2435
     17 C          66.0792   93.9059   12.8229 C.3     1  UNL1        0.0994
     18 C          66.4671   94.7409   11.6387 C.3     1  UNL1        0.0526
     19 C          66.1390   93.9654   10.3973 C.3     1  UNL1        0.1321
     20 O          66.3624   94.4238    8.9866 O.3     1  UNL1       -0.3827
     21 C          65.5483   92.6512   10.8142 C.3     1  UNL1        0.1259
     22 H          66.0643   93.7352    8.3719 H       1  UNL1        0.2104
     23 S          62.1308   87.4991   11.1357 S.O2    1  UNL1        0.0635
     24 O          60.9662   86.8388   11.8122 O.2     1  UNL1       -0.1528
     25 O          62.9590   88.1452   10.2876 O.2     1  UNL1       -0.1528
     26 C          61.2636   87.8179    9.9541 C.ar    1  UNL1        0.1223
     27 C          60.6569   86.7080    9.1478 C.ar    1  UNL1        0.0208
     28 C          59.7897   87.0268    7.9662 C.ar    1  UNL1        0.0128
     29 C          59.5291   88.4555    7.5908 C.ar    1  UNL1        0.0578
     30 CL         58.6619   88.7743    6.4092 Cl      1  UNL1       -0.0822
     31 C          60.1358   89.5654    8.3970 C.ar    1  UNL1        0.0128
     32 C          61.0030   89.2466    9.5787 C.ar    1  UNL1        0.0208
@<TRIPOS>BOND
     1     7     8    1
     2     8     9    1
     3     1     8    1
     4     1     2    1
     5     2     3    1
     6     3     4    1
     7     4     5    1
     8     5    10    1
     9    10    13    1
    10    13    14    1
    11    14    15    2
    12    14    16   am
    13    16    17    1
    14    17    18    1
    15    18    19    1
    16    19    20    1
    17    19    21    1
    18    10    11    1
    19    11    12    1
    20     5     6    1
    21     6    23    1
    22    23    24    2
    23    23    25    2
    24    23    26    1
    25    26    27   ar
    26    27    28   ar
    27    28    29   ar
    28    29    30    1
    29    29    31   ar
    30    31    32   ar
    31     6     1    1
    32    32    26   ar
    33    12    10    1
    34    21    16    1
    35    20    22    1
@<TRIPOS>MOLECULE
*****
 32 35 0 0 0
SMALL
GASTEIGER

@<TRIPOS>ATOM
      1 C          62.1921   87.7672   10.0550 C.3     1  UNL1        0.1092
      2 C          62.2480   89.1609    9.5034 C.3     1  UNL1        0.1598
      3 O          62.7284   90.2902   10.3660 O.3     1  UNL1       -0.3507
      4 C          63.1529   90.0257   11.7801 C.3     1  UNL1        0.1634
      5 C          63.0970   88.6319   12.3317 C.3     1  UNL1        0.1455
      6 N          62.6166   87.5027   11.4691 N.3     1  UNL1       -0.1499
      7 C          62.7013   85.7150    8.5453 C.3     1  UNL1        0.0015
      8 C          61.7117   86.6379    9.1924 C.3     1  UNL1        0.0189
      9 C          60.2417   86.4315    8.9771 C.3     1  UNL1        0.0015
     10 C          63.5215   88.3674   13.7459 C.3     1  UNL1        0.1550
     11 C          64.1952   87.7154   14.9168 C.3     1  UNL1        0.0453
     12 C          64.3865   87.1598   13.5366 C.3     1  UNL1        0.0453
     13 O          62.8040   89.4831   14.4461 O.3     1  UNL1       -0.4403
     14 C          63.5207   90.3065   15.4749 C.2     1  UNL1        0.4048
     15 O          63.1142   90.2254   16.9165 O.2     1  UNL1       -0.2262
     16 N          64.6438   91.2110   15.0621 N.am    1  UNL1       -0.2435
     17 C          65.4489   92.0895   15.9734 C.3     1  UNL1        0.0994
     18 C          66.4617   92.8173   15.1400 C.3     1  UNL1        0.0526
     19 C          66.2826   92.3887   13.7138 C.3     1  UNL1        0.1321
     20 O          67.0860   92.8686   12.5414 O.3     1  UNL1       -0.3827
     21 C          65.1591   91.3960   13.6656 C.3     1  UNL1        0.1259
     22 H          66.7683   92.4365   11.7331 H       1  UNL1        0.2104
     23 S          62.5608   86.1089   12.0208 S.O2    1  UNL1        0.0635
     24 O          61.1651   86.3586   12.5103 O.2     1  UNL1       -0.1528
     25 O          63.7674   85.5873   11.7134 O.2     1  UNL1       -0.1528
     26 C          62.5049   84.7151   12.5724 C.ar    1  UNL1        0.1223
     27 C          62.5979   83.5380   11.6472 C.ar    1  UNL1        0.0208
     28 C          62.5420   82.1443   12.1989 C.ar    1  UNL1        0.0128
     29 C          62.3930   81.9276   13.6756 C.ar    1  UNL1        0.0578
     30 CL         62.3371   80.5338   14.2273 Cl      1  UNL1       -0.0822
     31 C          62.3000   83.1046   14.6008 C.ar    1  UNL1        0.0128
     32 C          62.3559   84.4984   14.0492 C.ar    1  UNL1        0.0208
@<TRIPOS>BOND
     1     7     8    1
     2     8     9    1
     3     1     8    1
     4     1     2    1
     5     2     3    1
     6     3     4    1
     7     4     5    1
     8     5    10    1
     9    10    13    1
    10    13    14    1
    11    14    15    2
    12    14    16   am
    13    16    17    1
    14    17    18    1
    15    18    19    1
    16    19    20    1
    17    19    21    1
    18    10    11    1
    19    11    12    1
    20     5     6    1
    21     6    23    1
    22    23    24    2
    23    23    25    2
    24    23    26    1
    25    26    27   ar
    26    27    28   ar
    27    28    29   ar
    28    29    30    1
    29    29    31   ar
    30    31    32   ar
    31     6     1    1
    32    32    26   ar
    33    12    10    1
    34    21    16    1
    35    20    22    1
@<TRIPOS>MOLECULE
*****
 32 35 0 0 0
SMALL
GASTEIGER

@<TRIPOS>ATOM
      1 C          63.4785   85.5294   12.7399 C.3     1  UNL1        0.1092
      2 C          64.3325   85.1899   13.9253 C.3     1  UNL1        0.1598
      3 O          64.7960   86.2752   14.8512 O.3     1  UNL1       -0.3507
      4 C          64.4054   87.7000   14.5918 C.3     1  UNL1        0.1634
      5 C          63.5513   88.0395   13.4064 C.3     1  UNL1        0.1455
      6 N          63.0879   86.9542   12.4804 N.3     1  UNL1       -0.1499
      7 C          62.1998   83.3025   12.3451 C.3     1  UNL1        0.0015
      8 C          63.0150   84.4441   11.8140 C.3     1  UNL1        0.0189
      9 C          63.3667   84.5005   10.3569 C.3     1  UNL1        0.0015
     10 C          63.1607   89.4643   13.1468 C.3     1  UNL1        0.1550
     11 C          62.3108   90.6546   12.8138 C.3     1  UNL1        0.0453
     12 C          61.7024   89.2838   12.8451 C.3     1  UNL1        0.0453
     13 O          64.4833   90.1396   13.3584 O.3     1  UNL1       -0.4403
     14 C          64.6796   91.0533   14.5318 C.2     1  UNL1        0.4048
     15 O          63.5337   91.3458   15.4545 O.2     1  UNL1       -0.2262
     16 N          66.0217   91.6743   14.7824 N.am    1  UNL1       -0.2435
     17 C          66.3672   92.6028   15.9088 C.3     1  UNL1        0.0994
     18 C          67.8131   92.9783   15.7732 C.3     1  UNL1        0.0526
     19 C          68.3613   92.2819   14.5630 C.3     1  UNL1        0.1321
     20 O          69.7694   92.3750   14.0544 O.3     1  UNL1       -0.3827
     21 C          67.2542   91.4760   13.9507 C.3     1  UNL1        0.1259
     22 H          69.8623   91.8291   13.2581 H       1  UNL1        0.2104
     23 S          62.2337   87.2938   11.2950 S.O2    1  UNL1        0.0635
     24 O          61.0819   86.5594   11.9145 O.2     1  UNL1       -0.1528
     25 O          63.0537   88.0090   10.4958 O.2     1  UNL1       -0.1528
     26 C          61.3796   87.6333   10.1096 C.ar    1  UNL1        0.1223
     27 C          61.1902   89.0660    9.7073 C.ar    1  UNL1        0.0208
     28 C          60.3361   89.4055    8.5220 C.ar    1  UNL1        0.0128
     29 C          59.6714   88.3124    7.7388 C.ar    1  UNL1        0.0578
     30 CL         58.8173   88.6520    6.5534 Cl      1  UNL1       -0.0822
     31 C          59.8608   86.8799    8.1409 C.ar    1  UNL1        0.0128
     32 C          60.7149   86.5403    9.3264 C.ar    1  UNL1        0.0208
@<TRIPOS>BOND
     1     7     8    1
     2     8     9    1
     3     1     8    1
     4     1     2    1
     5     2     3    1
     6     3     4    1
     7     4     5    1
     8     5    10    1
     9    10    13    1
    10    13    14    1
    11    14    15    2
    12    14    16   am
    13    16    17    1
    14    17    18    1
    15    18    19    1
    16    19    20    1
    17    19    21    1
    18    10    11    1
    19    11    12    1
    20     5     6    1
    21     6    23    1
    22    23    24    2
    23    23    25    2
    24    23    26    1
    25    26    27   ar
    26    27    28   ar
    27    28    29   ar
    28    29    30    1
    29    29    31   ar
    30    31    32   ar
    31     6     1    1
    32    32    26   ar
    33    12    10    1
    34    21    16    1
    35    20    22    1
@<TRIPOS>MOLECULE
*****
 32 35 0 0 0
SMALL
GASTEIGER

@<TRIPOS>ATOM
      1 C          60.0198   94.7826   -5.0789 C.3     1  UNL1        0.1092
      2 C          61.4805   94.6106   -5.3734 C.3     1  UNL1        0.1598
      3 O          62.4777   94.6204   -4.2529 O.3     1  UNL1       -0.3507
      4 C          62.0142   94.8020   -2.8379 C.3     1  UNL1        0.1634
      5 C          60.5535   94.9740   -2.5435 C.3     1  UNL1        0.1455
      6 N          59.5563   94.9642   -3.6639 N.3     1  UNL1       -0.1499
      7 C          58.3759   93.4854   -6.6167 C.3     1  UNL1        0.0015
      8 C          59.0225   94.7728   -6.1993 C.3     1  UNL1        0.0189
      9 C          58.6720   96.0506   -6.9025 C.3     1  UNL1        0.0015
     10 C          60.0900   95.1557   -1.1284 C.3     1  UNL1        0.1550
     11 C          59.6770   95.8356    0.1432 C.3     1  UNL1        0.0453
     12 C          60.0747   96.6536   -1.0496 C.3     1  UNL1        0.0453
     13 O          59.9444   93.7209   -0.7159 O.3     1  UNL1       -0.4403
     14 C          60.2517   93.3110    0.6939 C.2     1  UNL1        0.4048
     15 O          59.1386   93.1382    1.6843 O.2     1  UNL1       -0.2262
     16 N          61.6722   93.0740    1.1133 N.am    1  UNL1       -0.2435
     17 C          62.1309   92.6624    2.4809 C.3     1  UNL1        0.0994
     18 C          63.6257   92.5410    2.4515 C.3     1  UNL1        0.0526
     19 C          64.0909   92.8774    1.0658 C.3     1  UNL1        0.1321
     20 O          65.5136   92.8834    0.5904 O.3     1  UNL1       -0.3827
     21 C          62.8836   93.2068    0.2387 C.3     1  UNL1        0.1259
     22 H          65.5407   93.1356   -0.3458 H       1  UNL1        0.2104
     23 S          58.0955   95.1362   -3.3694 S.O2    1  UNL1        0.0635
     24 O          57.9640   93.6569   -3.1586 O.2     1  UNL1       -0.1528
     25 O          57.8924   96.4654   -3.4893 O.2     1  UNL1       -0.1528
     26 C          56.6348   95.3081   -3.0748 C.ar    1  UNL1        0.1223
     27 C          55.7429   95.9845   -4.0733 C.ar    1  UNL1        0.0208
     28 C          54.2822   96.1564   -3.7788 C.ar    1  UNL1        0.0128
     29 C          53.7134   95.6519   -2.4858 C.ar    1  UNL1        0.0578
     30 CL         52.2527   95.8238   -2.1912 Cl      1  UNL1       -0.0822
     31 C          54.6052   94.9755   -1.4873 C.ar    1  UNL1        0.0128
     32 C          56.0660   94.8035   -1.7818 C.ar    1  UNL1        0.0208
@<TRIPOS>BOND
     1     7     8    1
     2     8     9    1
     3     1     8    1
     4     1     2    1
     5     2     3    1
     6     3     4    1
     7     4     5    1
     8     5    10    1
     9    10    13    1
    10    13    14    1
    11    14    15    2
    12    14    16   am
    13    16    17    1
    14    17    18    1
    15    18    19    1
    16    19    20    1
    17    19    21    1
    18    10    11    1
    19    11    12    1
    20     5     6    1
    21     6    23    1
    22    23    24    2
    23    23    25    2
    24    23    26    1
    25    26    27   ar
    26    27    28   ar
    27    28    29   ar
    28    29    30    1
    29    29    31   ar
    30    31    32   ar
    31     6     1    1
    32    32    26   ar
    33    12    10    1
    34    21    16    1
    35    20    22    1
@<TRIPOS>MOLECULE
*****
 32 35 0 0 0
SMALL
GASTEIGER

@<TRIPOS>ATOM
      1 C          63.3764   85.6584   12.6489 C.3     1  UNL1        0.1092
      2 C          64.2497   85.3319   13.8239 C.3     1  UNL1        0.1598
      3 O          64.7667   86.4321   14.7028 O.3     1  UNL1       -0.3507
      4 C          64.4103   87.8587   14.4067 C.3     1  UNL1        0.1634
      5 C          63.5370   88.1851   13.2317 C.3     1  UNL1        0.1455
      6 N          63.0200   87.0850   12.3528 N.3     1  UNL1       -0.1499
      7 C          63.1686   84.5629   10.3023 C.3     1  UNL1        0.0015
      8 C          62.8594   84.5582   11.7701 C.3     1  UNL1        0.0189
      9 C          62.0334   83.4534   12.3590 C.3     1  UNL1        0.0015
     10 C          63.1806   89.6118   12.9355 C.3     1  UNL1        0.1550
     11 C          62.4185   90.9038   12.9370 C.3     1  UNL1        0.0453
     12 C          61.8886   89.7196   13.6899 C.3     1  UNL1        0.0453
     13 O          64.3489   89.9995   12.0782 O.3     1  UNL1       -0.4403
     14 C          64.7299   91.4435   11.9382 C.2     1  UNL1        0.4048
     15 O          64.2860   92.2231   10.7360 O.2     1  UNL1       -0.2262
     16 N          65.5547   92.1079   13.0003 N.am    1  UNL1       -0.2435
     17 C          66.0102   93.5371   12.9977 C.3     1  UNL1        0.0994
     18 C          66.8059   93.7723   14.2474 C.3     1  UNL1        0.0526
     19 C          66.8422   92.4885   15.0223 C.3     1  UNL1        0.1321
     20 O          67.5308   92.2714   16.3371 O.3     1  UNL1       -0.3827
     21 C          66.0689   91.4599   14.2516 C.3     1  UNL1        0.1259
     22 H          67.4016   91.3533   16.6221 H       1  UNL1        0.2104
     23 S          62.1467   87.4115   11.1777 S.O2    1  UNL1        0.0635
     24 O          60.9454   86.9321   11.9374 O.2     1  UNL1       -0.1528
     25 O          63.0055   87.9012   10.2585 O.2     1  UNL1       -0.1528
     26 C          61.2733   87.7380   10.0028 C.ar    1  UNL1        0.1223
     27 C          60.6468   86.6336    9.2041 C.ar    1  UNL1        0.0208
     28 C          59.7734   86.9601    8.0291 C.ar    1  UNL1        0.0128
     29 C          59.5265   88.3910    7.6528 C.ar    1  UNL1        0.0578
     30 CL         58.6532   88.7174    6.4778 Cl      1  UNL1       -0.0822
     31 C          60.1530   89.4953    8.4514 C.ar    1  UNL1        0.0128
     32 C          61.0264   89.1689    9.6264 C.ar    1  UNL1        0.0208
@<TRIPOS>BOND
     1     7     8    1
     2     8     9    1
     3     1     8    1
     4     1     2    1
     5     2     3    1
     6     3     4    1
     7     4     5    1
     8     5    10    1
     9    10    13    1
    10    13    14    1
    11    14    15    2
    12    14    16   am
    13    16    17    1
    14    17    18    1
    15    18    19    1
    16    19    20    1
    17    19    21    1
    18    10    11    1
    19    11    12    1
    20     5     6    1
    21     6    23    1
    22    23    24    2
    23    23    25    2
    24    23    26    1
    25    26    27   ar
    26    27    28   ar
    27    28    29   ar
    28    29    30    1
    29    29    31   ar
    30    31    32   ar
    31     6     1    1
    32    32    26   ar
    33    12    10    1
    34    21    16    1
    35    20    22    1
@<TRIPOS>MOLECULE
*****
 32 35 0 0 0
SMALL
GASTEIGER

@<TRIPOS>ATOM
      1 C          58.5295   95.0716   -5.3120 C.3     1  UNL1        0.1092
      2 C          59.4549   96.2311   -5.0906 C.3     1  UNL1        0.1598
      3 O          59.9530   96.5402   -3.7099 O.3     1  UNL1       -0.3507
      4 C          59.5256   95.6898   -2.5506 C.3     1  UNL1        0.1634
      5 C          58.6002   94.5303   -2.7719 C.3     1  UNL1        0.1455
      6 N          58.1021   94.2212   -4.1527 N.3     1  UNL1       -0.1499
      7 C          56.8567   95.5098   -7.2510 C.3     1  UNL1        0.0015
      8 C          58.0314   94.7625   -6.6927 C.3     1  UNL1        0.0189
      9 C          58.7080   93.7062   -7.5151 C.3     1  UNL1        0.0015
     10 C          58.1728   93.6797   -1.6126 C.3     1  UNL1        0.1550
     11 C          57.3473   93.1647   -0.4710 C.3     1  UNL1        0.0453
     12 C          56.8779   94.3503   -1.2610 C.3     1  UNL1        0.0453
     13 O          59.3193   92.7139   -1.5616 O.3     1  UNL1       -0.4403
     14 C          60.3502   92.8300   -0.4781 C.2     1  UNL1        0.4048
     15 O          59.9763   92.5454    0.9464 O.2     1  UNL1       -0.2262
     16 N          61.7548   93.2308   -0.8191 N.am    1  UNL1       -0.2435
     17 C          62.8874   93.3876    0.1519 C.3     1  UNL1        0.0994
     18 C          64.1061   93.7988   -0.6198 C.3     1  UNL1        0.0526
     19 C          63.7268   93.8961   -2.0678 C.3     1  UNL1        0.1321
     20 O          64.6403   94.2775   -3.1948 O.3     1  UNL1       -0.3827
     21 C          62.2737   93.5450   -2.1910 C.3     1  UNL1        0.1259
     22 H          64.1467   94.2641   -4.0298 H       1  UNL1        0.2104
     23 S          57.1767   93.0616   -4.3740 S.O2    1  UNL1        0.0635
     24 O          55.9985   93.9863   -4.2918 O.2     1  UNL1       -0.1528
     25 O          58.0040   92.0016   -4.4940 O.2     1  UNL1       -0.1528
     26 C          56.2512   91.9021   -4.5953 C.ar    1  UNL1        0.1223
     27 C          55.6355   91.6809   -5.9452 C.ar    1  UNL1        0.0208
     28 C          54.7101   90.5214   -6.1666 C.ar    1  UNL1        0.0128
     29 C          54.4002   89.5831   -5.0381 C.ar    1  UNL1        0.0578
     30 CL         53.4747   88.4236   -5.2594 Cl      1  UNL1       -0.0822
     31 C          55.0158   89.8042   -3.6882 C.ar    1  UNL1        0.0128
     32 C          55.9413   90.9638   -3.4669 C.ar    1  UNL1        0.0208
@<TRIPOS>BOND
     1     7     8    1
     2     8     9    1
     3     1     8    1
     4     1     2    1
     5     2     3    1
     6     3     4    1
     7     4     5    1
     8     5    10    1
     9    10    13    1
    10    13    14    1
    11    14    15    2
    12    14    16   am
    13    16    17    1
    14    17    18    1
    15    18    19    1
    16    19    20    1
    17    19    21    1
    18    10    11    1
    19    11    12    1
    20     5     6    1
    21     6    23    1
    22    23    24    2
    23    23    25    2
    24    23    26    1
    25    26    27   ar
    26    27    28   ar
    27    28    29   ar
    28    29    30    1
    29    29    31   ar
    30    31    32   ar
    31     6     1    1
    32    32    26   ar
    33    12    10    1
    34    21    16    1
    35    20    22    1
