@<TRIPOS>MOLECULE
*****
 33 35 0 0 0
SMALL
GASTEIGER

@<TRIPOS>ATOM
      1 N          63.2332   83.9285   11.0277 N.ar    1  UNL1       -0.2480
      2 C          63.0100   84.5072    9.6620 C.ar    1  UNL1        0.0966
      3 C          62.3417   85.8400    9.8269 C.ar    1  UNL1        0.0393
      4 C          61.8814   86.8621    8.8302 C.ar    1  UNL1        0.0175
      5 C          61.2314   88.1293    9.3012 C.ar    1  UNL1        0.0488
      6 C          61.0417   88.3743   10.7689 C.ar    1  UNL1        0.0168
      7 C          61.5020   87.3521   11.7655 C.ar    1  UNL1        0.0201
      8 C          62.1520   86.0850   11.2945 C.ar    1  UNL1        0.1022
      9 N          62.7030   84.9036   12.0367 N.ar    1  UNL1       -0.1692
     10 C          60.3917   89.6414   11.2399 C.3     1  UNL1        0.1083
     11 C          59.1532   88.8738   11.5958 C.3     1  UNL1        0.0339
     12 C          61.6302   90.4090   10.8839 C.3     1  UNL1        0.0339
     13 O          59.7417   90.9085   11.7109 O.3     1  UNL1       -0.3826
     14 H          58.8465   90.7137   12.0294 H       1  UNL1        0.2107
     15 N          60.7712   89.1515    8.3046 N.am    1  UNL1       -0.2793
     16 C          59.6793   88.8134    7.3333 C.2     1  UNL1        0.2672
     17 O          59.0476   87.4531    7.3586 O.2     1  UNL1       -0.2682
     18 H          61.1858   90.0443    8.2879 H       1  UNL1        0.1552
     19 C          59.2190   89.8355    6.3366 C.ar    1  UNL1        0.1347
     20 C          57.7573   90.1417    6.1969 C.ar    1  UNL1        0.0238
     21 C          57.2970   91.1639    5.2002 C.ar    1  UNL1        0.0032
     22 C          58.2985   91.8799    4.3433 C.ar    1  UNL1        0.0231
     23 C          59.7603   91.5737    4.4830 C.ar    1  UNL1        0.1527
     24 N          60.2205   90.5515    5.4796 N.ar    1  UNL1       -0.2368
     25 C          60.7618   92.2897    3.6260 C.3     1  UNL1        0.4348
     26 F          61.7633   93.0056    2.7691 F       1  UNL1       -0.1644
     27 F          59.6751   93.1794    3.0993 F       1  UNL1       -0.1644
     28 F          61.8485   91.4000    4.1527 F       1  UNL1       -0.1644
     29 C          63.8743   82.6067   11.3312 C.3     1  UNL1        0.1448
     30 C          64.0460   82.1657   12.7546 C.3     1  UNL1        0.0988
     31 C          62.3683   80.2379   13.2226 C.3     1  UNL1        0.0897
     32 N          62.8756   81.6186   13.5166 N.3     1  UNL1       -0.2686
     33 C          62.2124   82.4522   14.5727 C.3     1  UNL1        0.0897
@<TRIPOS>BOND
     1    31    32    1
     2    32    33    1
     3    32    30    1
     4    30    29    1
     5    29     1    1
     6     1     2   ar
     7     2     3   ar
     8     3     4   ar
     9     4     5   ar
    10     5    15    1
    11    15    16   am
    12    16    17    2
    13    16    19    1
    14    19    20   ar
    15    20    21   ar
    16    21    22   ar
    17    22    23   ar
    18    23    25    1
    19    25    26    1
    20    25    27    1
    21    25    28    1
    22    23    24   ar
    23     5     6   ar
    24     6    10    1
    25    10    11    1
    26    10    12    1
    27    10    13    1
    28     6     7   ar
    29     7     8   ar
    30     8     9   ar
    31     9     1   ar
    32     8     3   ar
    33    24    19   ar
    34    15    18    1
    35    13    14    1
@<TRIPOS>MOLECULE
*****
 33 35 0 0 0
SMALL
GASTEIGER

@<TRIPOS>ATOM
      1 N          63.0103   82.9494   11.1582 N.ar    1  UNL1       -0.2480
      2 C          63.6875   83.7769   12.2102 C.ar    1  UNL1        0.0966
      3 C          63.2509   85.2009   12.0322 C.ar    1  UNL1        0.0393
      4 C          63.5932   86.4564   12.7781 C.ar    1  UNL1        0.0175
      5 C          62.9886   87.7646   12.3619 C.ar    1  UNL1        0.0488
      6 C          62.0417   87.8172   11.1998 C.ar    1  UNL1        0.0168
      7 C          61.6993   86.5616   10.4539 C.ar    1  UNL1        0.0201
      8 C          62.3039   85.2535   10.8701 C.ar    1  UNL1        0.1022
      9 N          62.1552   83.8620   10.3300 N.ar    1  UNL1       -0.1692
     10 C          61.4371   89.1253   10.7836 C.3     1  UNL1        0.1083
     11 C          62.7262   89.5101   10.1203 C.3     1  UNL1        0.0339
     12 C          60.1480   88.7406   11.4470 C.3     1  UNL1        0.0339
     13 O          60.8325   90.4334   10.3674 O.3     1  UNL1       -0.3826
     14 H          61.4881   90.9500    9.8733 H       1  UNL1        0.2107
     15 N          63.3310   89.0201   13.1078 N.am    1  UNL1       -0.2793
     16 C          64.2058   88.9547   14.3246 C.2     1  UNL1        0.2672
     17 O          64.7382   87.6338   14.7954 O.2     1  UNL1       -0.2682
     18 H          62.9816   89.8871   12.7988 H       1  UNL1        0.1552
     19 C          64.5482   90.2102   15.0705 C.ar    1  UNL1        0.1347
     20 C          63.6055   90.7483   16.1058 C.ar    1  UNL1        0.0238
     21 C          63.9480   92.0039   16.8517 C.ar    1  UNL1        0.0032
     22 C          65.2330   92.7213   16.5623 C.ar    1  UNL1        0.0231
     23 C          66.1757   92.1833   15.5270 C.ar    1  UNL1        0.1527
     24 N          65.8333   90.9278   14.7811 N.ar    1  UNL1       -0.2368
     25 C          67.4608   92.9008   15.2376 C.3     1  UNL1        0.4348
     26 F          68.7459   93.6183   14.9482 F       1  UNL1       -0.1644
     27 F          66.7343   93.8272   14.3081 F       1  UNL1       -0.1644
     28 F          68.1873   91.9745   16.1671 F       1  UNL1       -0.1644
     29 C          63.1617   81.4693   10.9678 C.3     1  UNL1        0.1448
     30 C          62.5089   80.5190   11.9274 C.3     1  UNL1        0.0988
     31 C          63.7577   80.8862   14.1759 C.3     1  UNL1        0.0897
     32 N          62.4790   80.8359   13.3932 N.3     1  UNL1       -0.2686
     33 C          61.1705   81.1023   14.0764 C.3     1  UNL1        0.0897
@<TRIPOS>BOND
     1    31    32    1
     2    32    33    1
     3    32    30    1
     4    30    29    1
     5    29     1    1
     6     1     2   ar
     7     2     3   ar
     8     3     4   ar
     9     4     5   ar
    10     5    15    1
    11    15    16   am
    12    16    17    2
    13    16    19    1
    14    19    20   ar
    15    20    21   ar
    16    21    22   ar
    17    22    23   ar
    18    23    25    1
    19    25    26    1
    20    25    27    1
    21    25    28    1
    22    23    24   ar
    23     5     6   ar
    24     6    10    1
    25    10    11    1
    26    10    12    1
    27    10    13    1
    28     6     7   ar
    29     7     8   ar
    30     8     9   ar
    31     9     1   ar
    32     8     3   ar
    33    24    19   ar
    34    15    18    1
    35    13    14    1
@<TRIPOS>MOLECULE
*****
 33 35 0 0 0
SMALL
GASTEIGER

@<TRIPOS>ATOM
      1 N          62.3392   82.3617   13.6454 N.ar    1  UNL1       -0.2480
      2 C          63.1787   83.4152   12.9856 C.ar    1  UNL1        0.0966
      3 C          63.2842   84.5797   13.9252 C.ar    1  UNL1        0.0393
      4 C          63.9853   85.9009   13.8114 C.ar    1  UNL1        0.0175
      5 C          63.9121   86.8883   14.9382 C.ar    1  UNL1        0.0488
      6 C          63.1378   86.5545   16.1788 C.ar    1  UNL1        0.0168
      7 C          62.4367   85.2332   16.2926 C.ar    1  UNL1        0.0201
      8 C          62.5099   84.2459   15.1658 C.ar    1  UNL1        0.1022
      9 N          61.9259   82.8751   14.9929 N.ar    1  UNL1       -0.1692
     10 C          63.0646   87.5418   17.3056 C.3     1  UNL1        0.1083
     11 C          63.0489   86.4132   18.2935 C.3     1  UNL1        0.0339
     12 C          63.0803   88.6704   16.3177 C.3     1  UNL1        0.0339
     13 O          62.9914   88.5292   18.4324 O.3     1  UNL1       -0.3826
     14 H          62.9660   88.0539   19.2776 H       1  UNL1        0.2107
     15 N          64.6131   88.2095   14.8244 N.am    1  UNL1       -0.2793
     16 C          64.2292   89.1712   13.7392 C.2     1  UNL1        0.2672
     17 O          63.1443   88.8118   12.7678 O.2     1  UNL1       -0.2682
     18 H          65.3252   88.4454   15.4620 H       1  UNL1        0.1552
     19 C          64.9303   90.4924   13.6255 C.ar    1  UNL1        0.1347
     20 C          64.5814   91.4330   12.5103 C.ar    1  UNL1        0.0238
     21 C          65.2825   92.7542   12.3966 C.ar    1  UNL1        0.0032
     22 C          66.3325   93.1348   13.3979 C.ar    1  UNL1        0.0231
     23 C          66.6814   92.1941   14.5130 C.ar    1  UNL1        0.1527
     24 N          65.9803   90.8730   14.6268 N.ar    1  UNL1       -0.2368
     25 C          67.7314   92.5747   15.5144 C.3     1  UNL1        0.4348
     26 F          68.7815   92.9553   16.5156 F       1  UNL1       -0.1644
     27 F          66.6666   92.7932   16.5480 F       1  UNL1       -0.1644
     28 F          68.7962   92.3563   14.4807 F       1  UNL1       -0.1644
     29 C          61.9768   81.0288   13.0605 C.3     1  UNL1        0.1448
     30 C          62.9828   80.2669   12.2498 C.3     1  UNL1        0.0988
     31 C          62.7571   79.4892    9.7811 C.3     1  UNL1        0.0897
     32 N          63.1276   80.5429   10.7825 N.3     1  UNL1       -0.2686
     33 C          63.6428   81.8723   10.3167 C.3     1  UNL1        0.0897
@<TRIPOS>BOND
     1    31    32    1
     2    32    33    1
     3    32    30    1
     4    30    29    1
     5    29     1    1
     6     1     2   ar
     7     2     3   ar
     8     3     4   ar
     9     4     5   ar
    10     5    15    1
    11    15    16   am
    12    16    17    2
    13    16    19    1
    14    19    20   ar
    15    20    21   ar
    16    21    22   ar
    17    22    23   ar
    18    23    25    1
    19    25    26    1
    20    25    27    1
    21    25    28    1
    22    23    24   ar
    23     5     6   ar
    24     6    10    1
    25    10    11    1
    26    10    12    1
    27    10    13    1
    28     6     7   ar
    29     7     8   ar
    30     8     9   ar
    31     9     1   ar
    32     8     3   ar
    33    24    19   ar
    34    15    18    1
    35    13    14    1
@<TRIPOS>MOLECULE
*****
 33 35 0 0 0
SMALL
GASTEIGER

@<TRIPOS>ATOM
      1 N          62.6530   83.5931   13.3496 N.ar    1  UNL1       -0.2480
      2 C          63.6354   84.6329   13.8010 C.ar    1  UNL1        0.0966
      3 C          63.2795   85.9279   13.1329 C.ar    1  UNL1        0.0393
      4 C          63.8949   87.2942   13.1999 C.ar    1  UNL1        0.0175
      5 C          63.3080   88.4211   12.4025 C.ar    1  UNL1        0.0488
      6 C          62.1057   88.1816   11.5381 C.ar    1  UNL1        0.0168
      7 C          61.4903   86.8152   11.4711 C.ar    1  UNL1        0.0201
      8 C          62.0772   85.6884   12.2685 C.ar    1  UNL1        0.1022
      9 N          61.6901   84.2455   12.4025 N.ar    1  UNL1       -0.1692
     10 C          61.5189   89.3084   10.7407 C.3     1  UNL1        0.1083
     11 C          60.5755   89.6136   11.8663 C.3     1  UNL1        0.0339
     12 C          62.4622   89.0032    9.6152 C.3     1  UNL1        0.0339
     13 O          60.9320   90.4352    9.9434 O.3     1  UNL1       -0.3826
     14 H          60.2303   90.8641   10.4577 H       1  UNL1        0.2107
     15 N          63.9235   89.7873   12.4695 N.am    1  UNL1       -0.2793
     16 C          64.7477   90.1812   13.6593 C.2     1  UNL1        0.2672
     17 O          64.9564   89.2087   14.7820 O.2     1  UNL1       -0.2682
     18 H          63.7864   90.4256   11.7325 H       1  UNL1        0.1552
     19 C          65.3631   91.5474   13.7263 C.ar    1  UNL1        0.1347
     20 C          65.9314   92.0514   15.0197 C.ar    1  UNL1        0.0238
     21 C          66.5468   93.4178   15.0867 C.ar    1  UNL1        0.0032
     22 C          66.5939   94.2800   13.8602 C.ar    1  UNL1        0.0231
     23 C          66.0256   93.7760   12.5668 C.ar    1  UNL1        0.1527
     24 N          65.4102   92.4098   12.4998 N.ar    1  UNL1       -0.2368
     25 C          66.0727   94.6384   11.3403 C.3     1  UNL1        0.4348
     26 F          66.1198   95.5007   10.1138 F       1  UNL1       -0.1644
     27 F          66.0918   95.8650   12.2034 F       1  UNL1       -0.1644
     28 F          66.0537   93.4118   10.4772 F       1  UNL1       -0.1644
     29 C          62.6366   82.1537   13.7713 C.3     1  UNL1        0.1448
     30 C          63.3885   81.1299   12.9737 C.3     1  UNL1        0.0988
     31 C          64.3655   82.4336   10.9499 C.3     1  UNL1        0.0897
     32 N          63.5452   81.3007   11.4917 N.3     1  UNL1       -0.2686
     33 C          62.8815   80.3386   10.5515 C.3     1  UNL1        0.0897
@<TRIPOS>BOND
     1    31    32    1
     2    32    33    1
     3    32    30    1
     4    30    29    1
     5    29     1    1
     6     1     2   ar
     7     2     3   ar
     8     3     4   ar
     9     4     5   ar
    10     5    15    1
    11    15    16   am
    12    16    17    2
    13    16    19    1
    14    19    20   ar
    15    20    21   ar
    16    21    22   ar
    17    22    23   ar
    18    23    25    1
    19    25    26    1
    20    25    27    1
    21    25    28    1
    22    23    24   ar
    23     5     6   ar
    24     6    10    1
    25    10    11    1
    26    10    12    1
    27    10    13    1
    28     6     7   ar
    29     7     8   ar
    30     8     9   ar
    31     9     1   ar
    32     8     3   ar
    33    24    19   ar
    34    15    18    1
    35    13    14    1
@<TRIPOS>MOLECULE
*****
 33 35 0 0 0
SMALL
GASTEIGER

@<TRIPOS>ATOM
      1 N          60.8623   86.3355    9.1058 N.ar    1  UNL1       -0.2480
      2 C          61.4009   87.6438    9.6041 C.ar    1  UNL1        0.0966
      3 C          62.1505   87.3821   10.8767 C.ar    1  UNL1        0.0393
      4 C          62.8919   88.2924   11.8103 C.ar    1  UNL1        0.0175
      5 C          63.5581   87.7327   13.0322 C.ar    1  UNL1        0.0488
      6 C          63.4829   86.2625   13.3204 C.ar    1  UNL1        0.0168
      7 C          62.7414   85.3522   12.3868 C.ar    1  UNL1        0.0201
      8 C          62.0753   85.9120   11.1650 C.ar    1  UNL1        0.1022
      9 N          61.2791   85.2652   10.0705 N.ar    1  UNL1       -0.1692
     10 C          64.1490   85.7028   14.5422 C.3     1  UNL1        0.1083
     11 C          64.6824   84.5612   13.7284 C.3     1  UNL1        0.0339
     12 C          63.6157   86.8443   15.3560 C.3     1  UNL1        0.0339
     13 O          64.8152   85.1430   15.7640 O.3     1  UNL1       -0.3826
     14 H          65.2840   84.3263   15.5312 H       1  UNL1        0.2107
     15 N          64.2995   88.6430   13.9657 N.am    1  UNL1       -0.2793
     16 C          64.4078   90.1069   13.6572 C.2     1  UNL1        0.2672
     17 O          63.7748   90.6605   12.4151 O.2     1  UNL1       -0.2682
     18 H          64.7150   88.2797   14.7810 H       1  UNL1        0.1552
     19 C          65.1492   91.0173   14.5908 C.ar    1  UNL1        0.1347
     20 C          64.4675   91.5531   15.8148 C.ar    1  UNL1        0.0238
     21 C          65.2089   92.4635   16.7483 C.ar    1  UNL1        0.0032
     22 C          66.6320   92.8380   16.4579 C.ar    1  UNL1        0.0231
     23 C          67.3138   92.3023   15.2339 C.ar    1  UNL1        0.1527
     24 N          66.5724   91.3919   14.3003 N.ar    1  UNL1       -0.2368
     25 C          68.7370   92.6769   14.9435 C.3     1  UNL1        0.4348
     26 F          70.1601   93.0515   14.6531 F       1  UNL1       -0.1644
     27 F          68.6871   91.8815   13.6727 F       1  UNL1       -0.1644
     28 F          68.7869   93.4723   16.2142 F       1  UNL1       -0.1644
     29 C          60.0496   86.1331    7.8614 C.3     1  UNL1        0.1448
     30 C          60.3442   84.9763    6.9532 C.3     1  UNL1        0.0988
     31 C          62.8965   84.9291    7.4368 C.3     1  UNL1        0.0897
     32 N          61.7492   84.7231    6.4927 N.3     1  UNL1       -0.2686
     33 C          62.0069   84.2640    5.0882 C.3     1  UNL1        0.0897
@<TRIPOS>BOND
     1    31    32    1
     2    32    33    1
     3    32    30    1
     4    30    29    1
     5    29     1    1
     6     1     2   ar
     7     2     3   ar
     8     3     4   ar
     9     4     5   ar
    10     5    15    1
    11    15    16   am
    12    16    17    2
    13    16    19    1
    14    19    20   ar
    15    20    21   ar
    16    21    22   ar
    17    22    23   ar
    18    23    25    1
    19    25    26    1
    20    25    27    1
    21    25    28    1
    22    23    24   ar
    23     5     6   ar
    24     6    10    1
    25    10    11    1
    26    10    12    1
    27    10    13    1
    28     6     7   ar
    29     7     8   ar
    30     8     9   ar
    31     9     1   ar
    32     8     3   ar
    33    24    19   ar
    34    15    18    1
    35    13    14    1
@<TRIPOS>MOLECULE
*****
 33 35 0 0 0
SMALL
GASTEIGER

@<TRIPOS>ATOM
      1 N          73.0591   81.0324    9.3422 N.ar    1  UNL1       -0.2480
      2 C          72.4402   79.6666    9.3802 C.ar    1  UNL1        0.0966
      3 C          72.4353   79.1994   10.8056 C.ar    1  UNL1        0.0393
      4 C          71.9497   77.9324   11.4449 C.ar    1  UNL1        0.0175
      5 C          72.0799   77.7425   12.9272 C.ar    1  UNL1        0.0488
      6 C          72.6958   78.8196   13.7701 C.ar    1  UNL1        0.0168
      7 C          73.1815   80.0867   13.1307 C.ar    1  UNL1        0.0201
      8 C          73.0512   80.2765   11.6485 C.ar    1  UNL1        0.1022
      9 N          73.4367   81.4094   10.7440 N.ar    1  UNL1       -0.1692
     10 C          72.8260   78.6297   15.2523 C.3     1  UNL1        0.1083
     11 C          73.6309   77.3851   15.0221 C.3     1  UNL1        0.0339
     12 C          72.0210   79.8743   15.4825 C.3     1  UNL1        0.0339
     13 O          72.9562   78.4399   16.7345 O.3     1  UNL1       -0.3826
     14 H          73.4750   77.6401   16.9137 H       1  UNL1        0.2107
     15 N          71.5942   76.4755   13.5665 N.am    1  UNL1       -0.2793
     16 C          72.0142   75.1466   13.0118 C.2     1  UNL1        0.2672
     17 O          72.9199   75.0848   11.8177 O.2     1  UNL1       -0.2682
     18 H          70.9997   76.5160   14.3503 H       1  UNL1        0.1552
     19 C          71.5285   73.8796   13.6511 C.ar    1  UNL1        0.1347
     20 C          71.6887   73.6758   15.1285 C.ar    1  UNL1        0.0238
     21 C          71.2030   72.4087   15.7678 C.ar    1  UNL1        0.0032
     22 C          70.5571   71.3455   14.9297 C.ar    1  UNL1        0.0231
     23 C          70.3969   71.5494   13.4523 C.ar    1  UNL1        0.1527
     24 N          70.8826   72.8164   12.8129 N.ar    1  UNL1       -0.2368
     25 C          69.7510   70.4861   12.6141 C.3     1  UNL1        0.4348
     26 F          69.1051   69.4229   11.7761 F       1  UNL1       -0.1644
     27 F          69.3383   71.5251   11.6140 F       1  UNL1       -0.1644
     28 F          70.1637   69.4471   13.6142 F       1  UNL1       -0.1644
     29 C          73.2643   81.8735    8.1173 C.3     1  UNL1        0.1448
     30 C          73.6013   81.2229    6.8084 C.3     1  UNL1        0.0988
     31 C          73.1885   82.0698    4.3872 C.3     1  UNL1        0.0897
     32 N          72.6896   81.3932    5.6295 N.3     1  UNL1       -0.2686
     33 C          71.2791   80.8870    5.6929 C.3     1  UNL1        0.0897
@<TRIPOS>BOND
     1    31    32    1
     2    32    33    1
     3    32    30    1
     4    30    29    1
     5    29     1    1
     6     1     2   ar
     7     2     3   ar
     8     3     4   ar
     9     4     5   ar
    10     5    15    1
    11    15    16   am
    12    16    17    2
    13    16    19    1
    14    19    20   ar
    15    20    21   ar
    16    21    22   ar
    17    22    23   ar
    18    23    25    1
    19    25    26    1
    20    25    27    1
    21    25    28    1
    22    23    24   ar
    23     5     6   ar
    24     6    10    1
    25    10    11    1
    26    10    12    1
    27    10    13    1
    28     6     7   ar
    29     7     8   ar
    30     8     9   ar
    31     9     1   ar
    32     8     3   ar
    33    24    19   ar
    34    15    18    1
    35    13    14    1
@<TRIPOS>MOLECULE
*****
 33 35 0 0 0
SMALL
GASTEIGER

@<TRIPOS>ATOM
      1 N          62.3708   82.5182   13.5481 N.ar    1  UNL1       -0.2480
      2 C          63.2112   83.5956   12.9292 C.ar    1  UNL1        0.0966
      3 C          63.3079   84.7279   13.9082 C.ar    1  UNL1        0.0393
      4 C          64.0059   86.0540   13.8433 C.ar    1  UNL1        0.0175
      5 C          63.9233   87.0026   15.0024 C.ar    1  UNL1        0.0488
      6 C          63.1426   86.6251   16.2263 C.ar    1  UNL1        0.0168
      7 C          62.4445   85.2989   16.2912 C.ar    1  UNL1        0.0201
      8 C          62.5272   84.3504   15.1322 C.ar    1  UNL1        0.1022
      9 N          61.9481   82.9847   14.9096 N.ar    1  UNL1       -0.1692
     10 C          63.0599   87.5736   17.3854 C.3     1  UNL1        0.1083
     11 C          63.0516   86.4126   18.3350 C.3     1  UNL1        0.0339
     12 C          63.0683   88.7347   16.4357 C.3     1  UNL1        0.0339
     13 O          62.9772   88.5222   18.5444 O.3     1  UNL1       -0.3826
     14 H          62.9543   88.0187   19.3732 H       1  UNL1        0.2107
     15 N          64.6213   88.3287   14.9375 N.am    1  UNL1       -0.2793
     16 C          64.2125   89.3419   13.9097 C.2     1  UNL1        0.2672
     17 O          63.1058   89.0290   12.9468 O.2     1  UNL1       -0.2682
     18 H          65.3477   88.5341   15.5695 H       1  UNL1        0.1552
     19 C          64.9105   90.6680   13.8448 C.ar    1  UNL1        0.1347
     20 C          65.5667   91.2309   15.0706 C.ar    1  UNL1        0.0238
     21 C          66.2648   92.5571   15.0056 C.ar    1  UNL1        0.0032
     22 C          66.3066   93.3202   13.7149 C.ar    1  UNL1        0.0231
     23 C          65.6504   92.7573   12.4892 C.ar    1  UNL1        0.1527
     24 N          64.9524   91.4312   12.5541 N.ar    1  UNL1       -0.2368
     25 C          65.6922   93.5205   11.1985 C.3     1  UNL1        0.4348
     26 F          65.7340   94.2836    9.9078 F       1  UNL1       -0.1644
     27 F          66.3073   94.6892   11.9095 F       1  UNL1       -0.1644
     28 F          65.0770   92.3517   10.4875 F       1  UNL1       -0.1644
     29 C          62.0156   81.2049   12.9164 C.3     1  UNL1        0.1448
     30 C          63.0500   80.4388   12.1464 C.3     1  UNL1        0.0988
     31 C          62.7790   79.5928    9.7049 C.3     1  UNL1        0.0897
     32 N          63.2027   80.6596   10.6707 N.3     1  UNL1       -0.2686
     33 C          63.7790   81.9470   10.1606 C.3     1  UNL1        0.0897
@<TRIPOS>BOND
     1    31    32    1
     2    32    33    1
     3    32    30    1
     4    30    29    1
     5    29     1    1
     6     1     2   ar
     7     2     3   ar
     8     3     4   ar
     9     4     5   ar
    10     5    15    1
    11    15    16   am
    12    16    17    2
    13    16    19    1
    14    19    20   ar
    15    20    21   ar
    16    21    22   ar
    17    22    23   ar
    18    23    25    1
    19    25    26    1
    20    25    27    1
    21    25    28    1
    22    23    24   ar
    23     5     6   ar
    24     6    10    1
    25    10    11    1
    26    10    12    1
    27    10    13    1
    28     6     7   ar
    29     7     8   ar
    30     8     9   ar
    31     9     1   ar
    32     8     3   ar
    33    24    19   ar
    34    15    18    1
    35    13    14    1
@<TRIPOS>MOLECULE
*****
 33 35 0 0 0
SMALL
GASTEIGER

@<TRIPOS>ATOM
      1 N          59.7695   88.9655    7.8893 N.ar    1  UNL1       -0.2480
      2 C          60.3859   90.0218    8.7579 C.ar    1  UNL1        0.0966
      3 C          61.1609   89.3353    9.8433 C.ar    1  UNL1        0.0393
      4 C          61.9740   89.8670   10.9861 C.ar    1  UNL1        0.0175
      5 C          62.6497   88.9182   11.9313 C.ar    1  UNL1        0.0488
      6 C          62.5123   87.4377   11.7335 C.ar    1  UNL1        0.0168
      7 C          61.6991   86.9059   10.5906 C.ar    1  UNL1        0.0201
      8 C          61.0235   87.8547    9.6455 C.ar    1  UNL1        0.1022
      9 N          60.1635   87.6262    8.4379 N.ar    1  UNL1       -0.1692
     10 C          63.1879   86.4889   12.6786 C.3     1  UNL1        0.1083
     11 C          62.5652   85.3291   11.9595 C.3     1  UNL1        0.0339
     12 C          63.8106   87.6486   13.3978 C.3     1  UNL1        0.0339
     13 O          63.8636   85.5401   13.6237 O.3     1  UNL1       -0.3826
     14 H          63.6296   84.6285   13.3890 H       1  UNL1        0.2107
     15 N          63.4627   89.4500   13.0741 N.am    1  UNL1       -0.2793
     16 C          64.1291   90.7891   12.9613 C.2     1  UNL1        0.2672
     17 O          63.9824   91.5964   11.7057 O.2     1  UNL1       -0.2682
     18 H          63.5590   88.9201   13.8982 H       1  UNL1        0.1552
     19 C          64.9422   91.3208   14.1042 C.ar    1  UNL1        0.1347
     20 C          64.2899   91.5882   15.4282 C.ar    1  UNL1        0.0238
     21 C          65.1031   92.1199   16.5711 C.ar    1  UNL1        0.0032
     22 C          66.5684   92.3844   16.3899 C.ar    1  UNL1        0.0231
     23 C          67.2206   92.1170   15.0658 C.ar    1  UNL1        0.1527
     24 N          66.4076   91.5853   13.9230 N.ar    1  UNL1       -0.2368
     25 C          68.6860   92.3815   14.8847 C.3     1  UNL1        0.4348
     26 F          70.1514   92.6459   14.7035 F       1  UNL1       -0.1644
     27 F          68.5952   91.9114   13.4631 F       1  UNL1       -0.1644
     28 F          68.7769   92.8515   16.3062 F       1  UNL1       -0.1644
     29 C          58.9099   89.2063    6.6838 C.3     1  UNL1        0.1448
     30 C          59.4184   90.0572    5.5580 C.3     1  UNL1        0.0988
     31 C          57.0942   91.1443    5.1500 C.3     1  UNL1        0.0897
     32 N          58.5898   91.1983    5.0469 N.3     1  UNL1       -0.2686
     33 C          59.2566   92.3933    4.4327 C.3     1  UNL1        0.0897
@<TRIPOS>BOND
     1    31    32    1
     2    32    33    1
     3    32    30    1
     4    30    29    1
     5    29     1    1
     6     1     2   ar
     7     2     3   ar
     8     3     4   ar
     9     4     5   ar
    10     5    15    1
    11    15    16   am
    12    16    17    2
    13    16    19    1
    14    19    20   ar
    15    20    21   ar
    16    21    22   ar
    17    22    23   ar
    18    23    25    1
    19    25    26    1
    20    25    27    1
    21    25    28    1
    22    23    24   ar
    23     5     6   ar
    24     6    10    1
    25    10    11    1
    26    10    12    1
    27    10    13    1
    28     6     7   ar
    29     7     8   ar
    30     8     9   ar
    31     9     1   ar
    32     8     3   ar
    33    24    19   ar
    34    15    18    1
    35    13    14    1
@<TRIPOS>MOLECULE
*****
 33 35 0 0 0
SMALL
GASTEIGER

@<TRIPOS>ATOM
      1 N          60.8544   86.3618    9.1439 N.ar    1  UNL1       -0.2480
      2 C          61.4196   87.6628    9.6316 C.ar    1  UNL1        0.0966
      3 C          62.1756   87.3937   10.8989 C.ar    1  UNL1        0.0393
      4 C          62.9405   88.2952   11.8220 C.ar    1  UNL1        0.0175
      5 C          63.6075   87.7295   13.0407 C.ar    1  UNL1        0.0488
      6 C          63.5095   86.2621   13.3362 C.ar    1  UNL1        0.0168
      7 C          62.7445   85.3606   12.4131 C.ar    1  UNL1        0.0201
      8 C          62.0776   85.9264   11.1945 C.ar    1  UNL1        0.1022
      9 N          61.2610   85.2886   10.1098 N.ar    1  UNL1       -0.1692
     10 C          64.1764   85.6963   14.5548 C.3     1  UNL1        0.1083
     11 C          63.7030   86.8706   15.3591 C.3     1  UNL1        0.0339
     12 C          64.6497   84.5221   13.7506 C.3     1  UNL1        0.0339
     13 O          64.8433   85.1306   15.7734 O.3     1  UNL1       -0.3826
     14 H          64.6984   85.7246   16.5265 H       1  UNL1        0.2107
     15 N          64.3724   88.6310   13.9637 N.am    1  UNL1       -0.2793
     16 C          64.4596   90.1004   13.6751 C.2     1  UNL1        0.2672
     17 O          63.7819   90.6682   12.4634 O.2     1  UNL1       -0.2682
     18 H          64.8173   88.2583   14.7590 H       1  UNL1        0.1552
     19 C          65.2246   91.0019   14.5982 C.ar    1  UNL1        0.1347
     20 C          64.5565   91.5713   15.8145 C.ar    1  UNL1        0.0238
     21 C          65.3215   92.4729   16.7375 C.ar    1  UNL1        0.0032
     22 C          66.7545   92.8050   16.4443 C.ar    1  UNL1        0.0231
     23 C          67.4226   92.2356   15.2280 C.ar    1  UNL1        0.1527
     24 N          66.6577   91.3341   14.3049 N.ar    1  UNL1       -0.2368
     25 C          68.8557   92.5678   14.9347 C.3     1  UNL1        0.4348
     26 F          70.2888   92.8999   14.6415 F       1  UNL1       -0.1644
     27 F          68.9680   93.2560   16.2628 F       1  UNL1       -0.1644
     28 F          68.7435   91.8795   13.6067 F       1  UNL1       -0.1644
     29 C          60.0277   86.1679    7.9073 C.3     1  UNL1        0.1448
     30 C          58.9693   87.1683    7.5483 C.3     1  UNL1        0.0988
     31 C          59.6691   89.3657    8.7450 C.3     1  UNL1        0.0897
     32 N          59.3066   88.6287    7.4897 N.3     1  UNL1       -0.2686
     33 C          59.2815   89.3521    6.1760 C.3     1  UNL1        0.0897
@<TRIPOS>BOND
     1    31    32    1
     2    32    33    1
     3    32    30    1
     4    30    29    1
     5    29     1    1
     6     1     2   ar
     7     2     3   ar
     8     3     4   ar
     9     4     5   ar
    10     5    15    1
    11    15    16   am
    12    16    17    2
    13    16    19    1
    14    19    20   ar
    15    20    21   ar
    16    21    22   ar
    17    22    23   ar
    18    23    25    1
    19    25    26    1
    20    25    27    1
    21    25    28    1
    22    23    24   ar
    23     5     6   ar
    24     6    10    1
    25    10    11    1
    26    10    12    1
    27    10    13    1
    28     6     7   ar
    29     7     8   ar
    30     8     9   ar
    31     9     1   ar
    32     8     3   ar
    33    24    19   ar
    34    15    18    1
    35    13    14    1
