@<TRIPOS>MOLECULE
*****
 32 34 0 0 0
SMALL
GASTEIGER

@<TRIPOS>ATOM
      1 C          63.5739   87.1909   16.1132 C.3     1  UNL1        0.1812
      2 O          64.1404   87.3088   14.7293 O.3     1  UNL1       -0.3784
      3 H          64.0502   88.2237   14.4199 H       1  UNL1        0.2106
      4 C          63.0074   87.0729   17.4971 C.3     1  UNL1        0.4197
      5 F          62.4409   86.9549   18.8810 F       1  UNL1       -0.1676
      6 F          62.1112   88.2458   17.2303 F       1  UNL1       -0.1676
      7 F          63.9035   85.9000   17.7639 F       1  UNL1       -0.1676
      8 C          63.9222   85.7319   16.1315 C.3     1  UNL1        0.0399
      9 C          63.6299   84.8761   14.9348 C.3     1  UNL1        0.0244
     10 C          62.1863   84.8070   15.3366 C.3     1  UNL1        0.0046
     11 C          65.0734   84.9451   14.5329 C.3     1  UNL1        0.0046
     12 C          63.0089   84.6592   12.4214 C.ar    1  UNL1        0.1348
     13 C          62.7166   83.8034   11.2246 C.ar    1  UNL1        0.0389
     14 C          62.7531   82.3087   11.3445 C.ar    1  UNL1        0.0327
     15 C          63.0818   81.6697   12.6613 C.ar    1  UNL1        0.1400
     16 F          63.1183   80.1750   12.7812 F       1  UNL1       -0.2042
     17 C          63.3741   82.5256   13.8580 C.ar    1  UNL1        0.0283
     18 C          63.3376   84.0203   13.7381 C.ar    1  UNL1        0.0135
     19 C          62.1891   86.7989   11.1966 C.3     1  UNL1        0.2525
     20 O          62.9724   86.1539   12.3014 O.3     1  UNL1       -0.4717
     21 C          63.2256   88.6498   16.0950 C.3     1  UNL1        0.0811
     22 C          63.6120   89.4985   14.9201 C.2     1  UNL1        0.0613
     23 C          64.7734   90.4460   14.8610 C.2     1  UNL1        0.0160
     24 C          64.7841   91.0818   13.5025 C.2     1  UNL1        0.0177
     25 C          65.6962   92.0941   12.8752 C.2     1  UNL1        0.0156
     26 C          65.4535   92.5519   11.4675 C.2     1  UNL1        0.0545
     27 C          66.3655   93.5642   10.8402 C.3     1  UNL1        0.0516
     28 N          64.2988   91.9973   10.6871 N.2     1  UNL1       -0.2707
     29 C          63.3867   90.9850   11.3143 C.3     1  UNL1        0.1426
     30 C          62.2320   90.4305   10.5338 C.3     1  UNL1        0.0328
     31 C          63.6294   90.5273   12.7219 C.2     1  UNL1        0.0808
     32 N          62.9050   89.5487   13.5982 N.2     1  UNL1       -0.2520
@<TRIPOS>BOND
     1    19    20    1
     2    20    12    1
     3    12    13   ar
     4    13    14   ar
     5    14    15   ar
     6    15    16    1
     7    15    17   ar
     8    17    18   ar
     9    18     9    1
    10     9    10    1
    11     9    11    1
    12     9     8    1
    13     8     1    1
    14     1     2    1
    15     1    21    1
    16    21    22    1
    17    22    23    2
    18    23    24    1
    19    24    25    2
    20    25    26    1
    21    26    27    1
    22    26    28    2
    23    28    29    1
    24    29    30    1
    25    29    31    1
    26    31    32    2
    27     1     4    1
    28     4     5    1
    29     4     6    1
    30     4     7    1
    31    18    12   ar
    32    32    22    1
    33    31    24    1
    34     2     3    1
@<TRIPOS>MOLECULE
*****
 32 34 0 0 0
SMALL
GASTEIGER

@<TRIPOS>ATOM
      1 C          61.6461   87.8483    9.9454 C.3     1  UNL1        0.1812
      2 O          62.8713   87.7916   10.8088 O.3     1  UNL1       -0.3784
      3 H          62.9957   88.6464   11.2501 H       1  UNL1        0.2106
      4 C          60.4209   87.9049    9.0819 C.3     1  UNL1        0.4197
      5 F          59.1956   87.9616    8.2184 F       1  UNL1       -0.1676
      6 F          61.0605   86.9562    8.1120 F       1  UNL1       -0.1676
      7 F          59.7812   88.8536   10.0518 F       1  UNL1       -0.1676
      8 C          61.8751   86.4261    9.5269 C.3     1  UNL1        0.0399
      9 C          62.3093   85.4074   10.5387 C.3     1  UNL1        0.0244
     10 C          63.3076   84.8617    9.5610 C.3     1  UNL1        0.0046
     11 C          61.3111   85.9530   11.5164 C.3     1  UNL1        0.0046
     12 C          63.3484   84.8322   12.8494 C.ar    1  UNL1        0.1348
     13 C          63.7827   83.8135   13.8613 C.ar    1  UNL1        0.0389
     14 C          63.6119   82.3512   13.5741 C.ar    1  UNL1        0.0327
     15 C          63.0069   81.9076   12.2751 C.ar    1  UNL1        0.1400
     16 F          62.8362   80.4453   11.9880 F       1  UNL1       -0.2042
     17 C          62.5727   82.9263   11.2633 C.ar    1  UNL1        0.0283
     18 C          62.7435   84.3886   11.5505 C.ar    1  UNL1        0.0135
     19 C          64.2471   86.7365   14.3715 C.3     1  UNL1        0.2525
     20 O          63.5192   86.2945   13.1366 O.3     1  UNL1       -0.4717
     21 C          61.4170   89.2704   10.3637 C.3     1  UNL1        0.0811
     22 C          62.3565   89.9285   11.3303 C.2     1  UNL1        0.0613
     23 C          63.4049   90.9450   10.9873 C.2     1  UNL1        0.0160
     24 C          64.1089   91.3304   12.2545 C.2     1  UNL1        0.0177
     25 C          65.2293   92.2895   12.5285 C.2     1  UNL1        0.0156
     26 C          65.7363   92.4702   13.9286 C.2     1  UNL1        0.0545
     27 C          66.8566   93.4293   14.2026 C.3     1  UNL1        0.0516
     28 N          65.1230   91.6919   15.0547 N.2     1  UNL1       -0.2707
     29 C          64.0027   90.7328   14.7807 C.3     1  UNL1        0.1426
     30 C          63.3895   89.9545   15.9069 C.3     1  UNL1        0.0328
     31 C          63.4957   90.5521   13.3807 C.2     1  UNL1        0.0808
     32 N          62.4126   89.6856   12.8094 N.2     1  UNL1       -0.2520
@<TRIPOS>BOND
     1    19    20    1
     2    20    12    1
     3    12    13   ar
     4    13    14   ar
     5    14    15   ar
     6    15    16    1
     7    15    17   ar
     8    17    18   ar
     9    18     9    1
    10     9    10    1
    11     9    11    1
    12     9     8    1
    13     8     1    1
    14     1     2    1
    15     1    21    1
    16    21    22    1
    17    22    23    2
    18    23    24    1
    19    24    25    2
    20    25    26    1
    21    26    27    1
    22    26    28    2
    23    28    29    1
    24    29    30    1
    25    29    31    1
    26    31    32    2
    27     1     4    1
    28     4     5    1
    29     4     6    1
    30     4     7    1
    31    18    12   ar
    32    32    22    1
    33    31    24    1
    34     2     3    1
@<TRIPOS>MOLECULE
*****
 32 34 0 0 0
SMALL
GASTEIGER

@<TRIPOS>ATOM
      1 C          61.5613   89.1913   10.5170 C.3     1  UNL1        0.1812
      2 O          62.7211   88.4019    9.9863 O.3     1  UNL1       -0.3784
      3 H          63.3825   89.0076    9.6169 H       1  UNL1        0.2106
      4 C          60.4015   89.9807   11.0477 C.3     1  UNL1        0.4197
      5 F          59.2416   90.7702   11.5784 F       1  UNL1       -0.1676
      6 F          60.7802   89.5964   12.4472 F       1  UNL1       -0.1676
      7 F          60.0227   90.3651    9.6482 F       1  UNL1       -0.1676
      8 C          60.8864   87.9187   10.9353 C.3     1  UNL1        0.0399
      9 C          61.6574   86.6321   10.9541 C.3     1  UNL1        0.0244
     10 C          60.7374   86.0654    9.9136 C.3     1  UNL1        0.0046
     11 C          62.5774   87.1987   11.9946 C.3     1  UNL1        0.0046
     12 C          63.0921   84.8505    9.7222 C.ar    1  UNL1        0.1348
     13 C          63.8631   83.5639    9.7410 C.ar    1  UNL1        0.0389
     14 C          63.9703   82.7724   11.0106 C.ar    1  UNL1        0.0327
     15 C          63.3065   83.2674   12.2614 C.ar    1  UNL1        0.1400
     16 F          63.4137   82.4758   13.5310 F       1  UNL1       -0.2042
     17 C          62.5355   84.5539   12.2426 C.ar    1  UNL1        0.0283
     18 C          62.4283   85.3455   10.9730 C.ar    1  UNL1        0.0135
     19 C          62.6558   84.9504    7.1629 C.3     1  UNL1        0.2525
     20 O          62.9849   85.6421    8.4526 O.3     1  UNL1       -0.4717
     21 C          62.2361   90.4640   10.0987 C.3     1  UNL1        0.0811
     22 C          63.2936   91.0737   10.9705 C.2     1  UNL1        0.0613
     23 C          63.6119   90.6742   12.3808 C.2     1  UNL1        0.0160
     24 C          64.7334   91.5435   12.8670 C.2     1  UNL1        0.0177
     25 C          65.4618   91.6032   14.1770 C.2     1  UNL1        0.0156
     26 C          66.5650   92.5996   14.3770 C.2     1  UNL1        0.0545
     27 C          67.2934   92.6593   15.6869 C.3     1  UNL1        0.0516
     28 N          66.9398   93.5364   13.2671 N.2     1  UNL1       -0.2707
     29 C          66.2115   93.4768   11.9572 C.3     1  UNL1        0.1426
     30 C          66.5863   94.4137   10.8473 C.3     1  UNL1        0.0328
     31 C          65.1083   92.4804   11.7572 C.2     1  UNL1        0.0808
     32 N          64.2184   92.1900   10.5850 N.2     1  UNL1       -0.2520
@<TRIPOS>BOND
     1    19    20    1
     2    20    12    1
     3    12    13   ar
     4    13    14   ar
     5    14    15   ar
     6    15    16    1
     7    15    17   ar
     8    17    18   ar
     9    18     9    1
    10     9    10    1
    11     9    11    1
    12     9     8    1
    13     8     1    1
    14     1     2    1
    15     1    21    1
    16    21    22    1
    17    22    23    2
    18    23    24    1
    19    24    25    2
    20    25    26    1
    21    26    27    1
    22    26    28    2
    23    28    29    1
    24    29    30    1
    25    29    31    1
    26    31    32    2
    27     1     4    1
    28     4     5    1
    29     4     6    1
    30     4     7    1
    31    18    12   ar
    32    32    22    1
    33    31    24    1
    34     2     3    1
@<TRIPOS>MOLECULE
*****
 32 34 0 0 0
SMALL
GASTEIGER

@<TRIPOS>ATOM
      1 C          61.4911   88.3367    9.5914 C.3     1  UNL1        0.1812
      2 O          62.7515   88.2002   10.3929 O.3     1  UNL1       -0.3784
      3 H          62.9688   89.0527   10.8015 H       1  UNL1        0.2106
      4 C          60.2306   88.4731    8.7898 C.3     1  UNL1        0.4197
      5 F          58.9701   88.6094    7.9881 F       1  UNL1       -0.1676
      6 F          59.7949   89.6084    9.6679 F       1  UNL1       -0.1676
      7 F          60.6662   87.3377    7.9116 F       1  UNL1       -0.1676
      8 C          61.5804   86.8901    9.2046 C.3     1  UNL1        0.0399
      9 C          62.0930   85.8809   10.1888 C.3     1  UNL1        0.0244
     10 C          63.0921   85.4020    9.1776 C.3     1  UNL1        0.0046
     11 C          61.0940   86.3597   11.2001 C.3     1  UNL1        0.0046
     12 C          63.1949   85.3265   12.4754 C.ar    1  UNL1        0.1348
     13 C          63.7076   84.3173   13.4597 C.ar    1  UNL1        0.0389
     14 C          63.6310   82.8534   13.1417 C.ar    1  UNL1        0.0327
     15 C          63.0418   82.3987   11.8393 C.ar    1  UNL1        0.1400
     16 F          62.9652   80.9348   11.5214 F       1  UNL1       -0.2042
     17 C          62.5291   83.4079   10.8551 C.ar    1  UNL1        0.0283
     18 C          62.6057   84.8717   11.1731 C.ar    1  UNL1        0.0135
     19 C          64.0501   87.2589   13.9869 C.3     1  UNL1        0.2525
     20 O          63.2715   86.7903   12.7934 O.3     1  UNL1       -0.4717
     21 C          61.4017   89.7832    9.9781 C.3     1  UNL1        0.0811
     22 C          62.4941   90.4108   10.7921 C.2     1  UNL1        0.0613
     23 C          62.7296   90.2051   12.2592 C.2     1  UNL1        0.0160
     24 C          63.9239   91.0214   12.6558 C.2     1  UNL1        0.0177
     25 C          64.6188   91.2098   13.9718 C.2     1  UNL1        0.0156
     26 C          65.8161   92.1084   14.0658 C.2     1  UNL1        0.0545
     27 C          66.5110   92.2968   15.3818 C.3     1  UNL1        0.0516
     28 N          66.3187   92.8186   12.8439 N.2     1  UNL1       -0.2707
     29 C          65.6238   92.6302   11.5280 C.3     1  UNL1        0.1426
     30 C          66.1264   93.3404   10.3061 C.3     1  UNL1        0.0328
     31 C          64.4265   91.7316   11.4340 C.2     1  UNL1        0.0808
     32 N          63.5428   91.3542   10.2821 N.2     1  UNL1       -0.2520
@<TRIPOS>BOND
     1    19    20    1
     2    20    12    1
     3    12    13   ar
     4    13    14   ar
     5    14    15   ar
     6    15    16    1
     7    15    17   ar
     8    17    18   ar
     9    18     9    1
    10     9    10    1
    11     9    11    1
    12     9     8    1
    13     8     1    1
    14     1     2    1
    15     1    21    1
    16    21    22    1
    17    22    23    2
    18    23    24    1
    19    24    25    2
    20    25    26    1
    21    26    27    1
    22    26    28    2
    23    28    29    1
    24    29    30    1
    25    29    31    1
    26    31    32    2
    27     1     4    1
    28     4     5    1
    29     4     6    1
    30     4     7    1
    31    18    12   ar
    32    32    22    1
    33    31    24    1
    34     2     3    1
@<TRIPOS>MOLECULE
*****
 32 34 0 0 0
SMALL
GASTEIGER

@<TRIPOS>ATOM
      1 C          61.6915   87.9793   10.7338 C.3     1  UNL1        0.1812
      2 O          62.8106   87.7160   11.6973 O.3     1  UNL1       -0.3784
      3 H          62.9283   88.4865   12.2746 H       1  UNL1        0.2106
      4 C          60.5724   88.2425    9.7704 C.3     1  UNL1        0.4197
      5 F          59.4532   88.5058    8.8069 F       1  UNL1       -0.1676
      6 F          59.7777   88.8845   10.8687 F       1  UNL1       -0.1676
      7 F          61.3670   87.6005    8.6720 F       1  UNL1       -0.1676
      8 C          61.8942   86.6223   10.1275 C.3     1  UNL1        0.0399
      9 C          62.3424   85.4767   10.9859 C.3     1  UNL1        0.0244
     10 C          63.3675   85.1056    9.9556 C.3     1  UNL1        0.0046
     11 C          61.3173   85.8477   12.0162 C.3     1  UNL1        0.0046
     12 C          63.4629   84.5969   13.1585 C.ar    1  UNL1        0.1348
     13 C          63.9111   83.4514   14.0169 C.ar    1  UNL1        0.0389
     14 C          63.6870   82.0400   13.5611 C.ar    1  UNL1        0.0327
     15 C          63.0146   81.7742   12.2467 C.ar    1  UNL1        0.1400
     16 F          62.7905   80.3629   11.7909 F       1  UNL1       -0.2042
     17 C          62.5664   82.9198   11.3884 C.ar    1  UNL1        0.0283
     18 C          62.7906   84.3311   11.8442 C.ar    1  UNL1        0.0135
     19 C          64.6510   86.2927   14.7280 C.3     1  UNL1        0.2525
     20 O          63.6871   86.0082   13.6144 O.3     1  UNL1       -0.4717
     21 C          61.4888   89.3362   11.3401 C.3     1  UNL1        0.0811
     22 C          62.6400   90.2927   11.4400 C.2     1  UNL1        0.0613
     23 C          63.1352   91.1933   10.3475 C.2     1  UNL1        0.0160
     24 C          64.2993   91.9736   10.8821 C.2     1  UNL1        0.0177
     25 C          65.1843   93.0112   10.2571 C.2     1  UNL1        0.0156
     26 C          66.2933   93.6302   11.0550 C.2     1  UNL1        0.0545
     27 C          67.1782   94.6677   10.4301 C.3     1  UNL1        0.0516
     28 N          66.5175   93.2119   12.4780 N.2     1  UNL1       -0.2707
     29 C          65.6326   92.1744   13.1029 C.3     1  UNL1        0.1426
     30 C          65.8569   91.7560   14.5259 C.3     1  UNL1        0.0328
     31 C          64.5236   91.5553   12.3050 C.2     1  UNL1        0.0808
     32 N          63.4980   90.5163   12.6498 N.2     1  UNL1       -0.2520
@<TRIPOS>BOND
     1    19    20    1
     2    20    12    1
     3    12    13   ar
     4    13    14   ar
     5    14    15   ar
     6    15    16    1
     7    15    17   ar
     8    17    18   ar
     9    18     9    1
    10     9    10    1
    11     9    11    1
    12     9     8    1
    13     8     1    1
    14     1     2    1
    15     1    21    1
    16    21    22    1
    17    22    23    2
    18    23    24    1
    19    24    25    2
    20    25    26    1
    21    26    27    1
    22    26    28    2
    23    28    29    1
    24    29    30    1
    25    29    31    1
    26    31    32    2
    27     1     4    1
    28     4     5    1
    29     4     6    1
    30     4     7    1
    31    18    12   ar
    32    32    22    1
    33    31    24    1
    34     2     3    1
@<TRIPOS>MOLECULE
*****
 32 34 0 0 0
SMALL
GASTEIGER

@<TRIPOS>ATOM
      1 C          62.4014   88.9651   11.5880 C.3     1  UNL1        0.1812
      2 O          63.5099   88.4403   12.4515 O.3     1  UNL1       -0.3784
      3 H          63.7403   87.5409   12.1707 H       1  UNL1        0.2106
      4 C          61.2928   89.4899   10.7245 C.3     1  UNL1        0.4197
      5 F          60.1842   90.0148    9.8609 F       1  UNL1       -0.1676
      6 F          60.5978   90.0244   11.9415 F       1  UNL1       -0.1676
      7 F          61.9878   88.9555    9.5074 F       1  UNL1       -0.1676
      8 C          62.4153   90.2548   12.3538 C.3     1  UNL1        0.0399
      9 C          63.7213   90.8844   12.7386 C.3     1  UNL1        0.0244
     10 C          63.4069   90.6517   14.1867 C.3     1  UNL1        0.0046
     11 C          64.0358   91.1171   11.2905 C.3     1  UNL1        0.0046
     12 C          65.5810   92.6478   12.3124 C.ar    1  UNL1        0.1348
     13 C          66.8871   93.2775   12.6971 C.ar    1  UNL1        0.0389
     14 C          67.6393   92.7732   13.8928 C.ar    1  UNL1        0.0327
     15 C          67.0855   91.6393   14.7039 C.ar    1  UNL1        0.1400
     16 F          67.8378   91.1351   15.8996 F       1  UNL1       -0.2042
     17 C          65.7795   91.0097   14.3191 C.ar    1  UNL1        0.0283
     18 C          65.0273   91.5140   13.1234 C.ar    1  UNL1        0.0135
     19 C          65.3554   94.3206   10.3372 C.3     1  UNL1        0.2525
     20 O          64.8288   93.1521   11.1166 O.3     1  UNL1       -0.4717
     21 C          62.3873   87.6754   10.8221 C.3     1  UNL1        0.0811
     22 C          62.5566   86.3720   11.5449 C.2     1  UNL1        0.0613
     23 C          62.2520   85.0113   10.9921 C.2     1  UNL1        0.0160
     24 C          62.5673   83.9988   12.0529 C.2     1  UNL1        0.0177
     25 C          62.4641   82.5024   12.0747 C.2     1  UNL1        0.0156
     26 C          62.8604   81.7412   13.3049 C.2     1  UNL1        0.0545
     27 C          62.7573   80.2449   13.3267 C.3     1  UNL1        0.0516
     28 N          63.3598   82.4762   14.5133 N.2     1  UNL1       -0.2707
     29 C          63.4630   83.9724   14.4915 C.3     1  UNL1        0.1426
     30 C          63.9624   84.7074   15.7001 C.3     1  UNL1        0.0328
     31 C          63.0667   84.7337   13.2614 C.2     1  UNL1        0.0808
     32 N          63.0601   86.2005   12.9474 N.2     1  UNL1       -0.2520
@<TRIPOS>BOND
     1    19    20    1
     2    20    12    1
     3    12    13   ar
     4    13    14   ar
     5    14    15   ar
     6    15    16    1
     7    15    17   ar
     8    17    18   ar
     9    18     9    1
    10     9    10    1
    11     9    11    1
    12     9     8    1
    13     8     1    1
    14     1     2    1
    15     1    21    1
    16    21    22    1
    17    22    23    2
    18    23    24    1
    19    24    25    2
    20    25    26    1
    21    26    27    1
    22    26    28    2
    23    28    29    1
    24    29    30    1
    25    29    31    1
    26    31    32    2
    27     1     4    1
    28     4     5    1
    29     4     6    1
    30     4     7    1
    31    18    12   ar
    32    32    22    1
    33    31    24    1
    34     2     3    1
@<TRIPOS>MOLECULE
*****
 32 34 0 0 0
SMALL
GASTEIGER

@<TRIPOS>ATOM
      1 C          61.7726   88.1573   10.4830 C.3     1  UNL1        0.1812
      2 O          62.8566   87.9029   11.4881 O.3     1  UNL1       -0.3784
      3 H          63.1702   86.9892   11.4012 H       1  UNL1        0.2106
      4 C          60.6887   88.4118    9.4778 C.3     1  UNL1        0.4197
      5 F          59.6047   88.6663    8.4727 F       1  UNL1       -0.1676
      6 F          61.3652   87.4836    8.5132 F       1  UNL1       -0.1676
      7 F          60.0121   89.3401   10.4425 F       1  UNL1       -0.1676
      8 C          61.6415   89.5662   10.9809 C.3     1  UNL1        0.0399
      9 C          62.7598   90.1937   11.7592 C.3     1  UNL1        0.0244
     10 C          61.9985   89.9716   13.0324 C.3     1  UNL1        0.0046
     11 C          63.5212   90.4158   10.4860 C.3     1  UNL1        0.0046
     12 C          64.3365   90.2012   13.8242 C.ar    1  UNL1        0.1348
     13 C          65.4548   90.8286   14.6025 C.ar    1  UNL1        0.0389
     14 C          66.1147   92.0760   14.0941 C.ar    1  UNL1        0.0327
     15 C          65.6564   92.6960   12.8074 C.ar    1  UNL1        0.1400
     16 F          66.3163   93.9433   12.2991 F       1  UNL1       -0.2042
     17 C          64.5380   92.0685   12.0291 C.ar    1  UNL1        0.0283
     18 C          63.8781   90.8211   12.5375 C.ar    1  UNL1        0.0135
     19 C          64.5057   87.7489   14.6656 C.3     1  UNL1        0.2525
     20 O          63.6766   88.9538   14.3325 O.3     1  UNL1       -0.4717
     21 C          61.9037   86.7485    9.9850 C.3     1  UNL1        0.0811
     22 C          62.1525   85.6307   10.9537 C.2     1  UNL1        0.0613
     23 C          62.4751   84.2100   10.5967 C.2     1  UNL1        0.0160
     24 C          62.6444   83.4386   11.8719 C.2     1  UNL1        0.0177
     25 C          62.9689   81.9984   12.1383 C.2     1  UNL1        0.0156
     26 C          63.0753   81.5023   13.5499 C.2     1  UNL1        0.0545
     27 C          63.3998   80.0623   13.8163 C.3     1  UNL1        0.0516
     28 N          62.8572   82.4463   14.6951 N.2     1  UNL1       -0.2707
     29 C          62.5327   83.8863   14.4286 C.3     1  UNL1        0.1426
     30 C          62.3146   84.8302   15.5739 C.3     1  UNL1        0.0328
     31 C          62.4263   84.3824   13.0171 C.2     1  UNL1        0.0808
     32 N          62.1223   85.7373   12.4497 N.2     1  UNL1       -0.2520
@<TRIPOS>BOND
     1    19    20    1
     2    20    12    1
     3    12    13   ar
     4    13    14   ar
     5    14    15   ar
     6    15    16    1
     7    15    17   ar
     8    17    18   ar
     9    18     9    1
    10     9    10    1
    11     9    11    1
    12     9     8    1
    13     8     1    1
    14     1     2    1
    15     1    21    1
    16    21    22    1
    17    22    23    2
    18    23    24    1
    19    24    25    2
    20    25    26    1
    21    26    27    1
    22    26    28    2
    23    28    29    1
    24    29    30    1
    25    29    31    1
    26    31    32    2
    27     1     4    1
    28     4     5    1
    29     4     6    1
    30     4     7    1
    31    18    12   ar
    32    32    22    1
    33    31    24    1
    34     2     3    1
@<TRIPOS>MOLECULE
*****
 32 34 0 0 0
SMALL
GASTEIGER

@<TRIPOS>ATOM
      1 C          62.2241   88.3237   11.3534 C.3     1  UNL1        0.1812
      2 O          63.4027   87.9563   12.2054 O.3     1  UNL1       -0.3784
      3 H          63.7279   87.0798   11.9467 H       1  UNL1        0.2106
      4 C          61.0455   88.6912   10.5015 C.3     1  UNL1        0.4197
      5 F          59.8668   89.0587    9.6495 F       1  UNL1       -0.1676
      6 F          60.2807   89.0866   11.7298 F       1  UNL1       -0.1676
      7 F          61.8101   88.2959    9.2731 F       1  UNL1       -0.1676
      8 C          62.1073   89.6315   12.0789 C.3     1  UNL1        0.0399
      9 C          63.2422   90.6117   12.0453 C.3     1  UNL1        0.0244
     10 C          62.7167   91.1762   10.7588 C.3     1  UNL1        0.0046
     11 C          63.7678   90.0472   13.3318 C.3     1  UNL1        0.0046
     12 C          64.9801   92.0854   13.2934 C.ar    1  UNL1        0.1348
     13 C          66.1151   93.0656   13.2599 C.ar    1  UNL1        0.0389
     14 C          66.6471   93.5523   11.9445 C.ar    1  UNL1        0.0327
     15 C          66.0441   93.0587   10.6627 C.ar    1  UNL1        0.1400
     16 F          66.5761   93.5454    9.3475 F       1  UNL1       -0.2042
     17 C          64.9092   92.0785   10.6963 C.ar    1  UNL1        0.0283
     18 C          64.3772   91.5919   12.0117 C.ar    1  UNL1        0.0135
     19 C          65.0998   92.0328   15.8883 C.3     1  UNL1        0.2525
     20 O          64.4481   91.5988   14.6087 O.3     1  UNL1       -0.4717
     21 C          62.3408   87.0161   10.6279 C.3     1  UNL1        0.0811
     22 C          62.4154   85.7332   11.4016 C.2     1  UNL1        0.0613
     23 C          62.4908   84.3540   10.8167 C.2     1  UNL1        0.0160
     24 C          62.5497   83.3727   11.9495 C.2     1  UNL1        0.0177
     25 C          62.6339   81.8752   11.9770 C.2     1  UNL1        0.0156
     26 C          62.6791   81.1505   13.2896 C.2     1  UNL1        0.0545
     27 C          62.7632   79.6532   13.3171 C.3     1  UNL1        0.0516
     28 N          62.6401   81.9232   14.5747 N.2     1  UNL1       -0.2707
     29 C          62.5560   83.4206   14.5471 C.3     1  UNL1        0.1426
     30 C          62.5171   84.1933   15.8323 C.3     1  UNL1        0.0328
     31 C          62.5108   84.1453   13.2347 C.2     1  UNL1        0.0808
     32 N          62.4278   85.6042   12.8960 N.2     1  UNL1       -0.2520
@<TRIPOS>BOND
     1    19    20    1
     2    20    12    1
     3    12    13   ar
     4    13    14   ar
     5    14    15   ar
     6    15    16    1
     7    15    17   ar
     8    17    18   ar
     9    18     9    1
    10     9    10    1
    11     9    11    1
    12     9     8    1
    13     8     1    1
    14     1     2    1
    15     1    21    1
    16    21    22    1
    17    22    23    2
    18    23    24    1
    19    24    25    2
    20    25    26    1
    21    26    27    1
    22    26    28    2
    23    28    29    1
    24    29    30    1
    25    29    31    1
    26    31    32    2
    27     1     4    1
    28     4     5    1
    29     4     6    1
    30     4     7    1
    31    18    12   ar
    32    32    22    1
    33    31    24    1
    34     2     3    1
@<TRIPOS>MOLECULE
*****
 32 34 0 0 0
SMALL
GASTEIGER

@<TRIPOS>ATOM
      1 C          61.1451   89.6961   10.9587 C.3     1  UNL1        0.1812
      2 O          62.4302   89.0883   10.4803 O.3     1  UNL1       -0.3784
      3 H          63.0736   89.7917   10.3012 H       1  UNL1        0.2106
      4 C          59.8599   90.3039   11.4370 C.3     1  UNL1        0.4197
      5 F          58.5746   90.9117   11.9154 F       1  UNL1       -0.1676
      6 F          60.1619   89.8443   12.8326 F       1  UNL1       -0.1676
      7 F          59.5578   90.7635   10.0415 F       1  UNL1       -0.1676
      8 C          60.5441   88.3274   11.0833 C.3     1  UNL1        0.0399
      9 C          61.3200   87.1241   10.6361 C.3     1  UNL1        0.0244
     10 C          60.2858   86.8475    9.5854 C.3     1  UNL1        0.0046
     11 C          62.3543   87.4005   11.6868 C.3     1  UNL1        0.0046
     12 C          62.5766   84.9207   11.1983 C.ar    1  UNL1        0.1348
     13 C          63.3526   83.7173   10.7512 C.ar    1  UNL1        0.0389
     14 C          63.6479   83.5141    9.2946 C.ar    1  UNL1        0.0327
     15 C          63.1672   84.5143    8.2852 C.ar    1  UNL1        0.1400
     16 F          63.4625   84.3110    6.8288 F       1  UNL1       -0.2042
     17 C          62.3913   85.7176    8.7324 C.ar    1  UNL1        0.0283
     18 C          62.0960   85.9208   10.1889 C.ar    1  UNL1        0.0135
     19 C          62.7799   84.1348   13.6664 C.3     1  UNL1        0.2525
     20 O          62.2813   85.1239   12.6548 O.3     1  UNL1       -0.4717
     21 C          61.7459   91.0648   10.8340 C.3     1  UNL1        0.0811
     22 C          63.0849   91.3546   11.4449 C.2     1  UNL1        0.0613
     23 C          63.4691   91.1247   12.8765 C.2     1  UNL1        0.0160
     24 C          64.8964   91.5531   13.0479 C.2     1  UNL1        0.0177
     25 C          65.8071   91.5567   14.2399 C.2     1  UNL1        0.0156
     26 C          67.2156   92.0549   14.1061 C.2     1  UNL1        0.0545
     27 C          68.1262   92.0585   15.2980 C.3     1  UNL1        0.0516
     28 N          67.7134   92.5495   12.7804 N.2     1  UNL1       -0.2707
     29 C          66.8027   92.5459   11.5885 C.3     1  UNL1        0.1426
     30 C          67.3007   93.0405   10.2628 C.3     1  UNL1        0.0328
     31 C          65.3943   92.0477   11.7223 C.2     1  UNL1        0.0808
     32 N          64.2747   91.9250   10.7315 N.2     1  UNL1       -0.2520
@<TRIPOS>BOND
     1    19    20    1
     2    20    12    1
     3    12    13   ar
     4    13    14   ar
     5    14    15   ar
     6    15    16    1
     7    15    17   ar
     8    17    18   ar
     9    18     9    1
    10     9    10    1
    11     9    11    1
    12     9     8    1
    13     8     1    1
    14     1     2    1
    15     1    21    1
    16    21    22    1
    17    22    23    2
    18    23    24    1
    19    24    25    2
    20    25    26    1
    21    26    27    1
    22    26    28    2
    23    28    29    1
    24    29    30    1
    25    29    31    1
    26    31    32    2
    27     1     4    1
    28     4     5    1
    29     4     6    1
    30     4     7    1
    31    18    12   ar
    32    32    22    1
    33    31    24    1
    34     2     3    1
