@<TRIPOS>MOLECULE
*****
 45 49 0 0 0
SMALL
GASTEIGER

@<TRIPOS>ATOM
      1 C          63.8064   89.6264   13.2828 C.3     1  UNL1        0.1789
      2 C          60.3452   86.1814    8.4452 C.3     1  UNL1        0.0897
      3 N          61.0006   87.1649    9.3690 N.3     1  UNL1       -0.2686
      4 C          61.8403   86.6759   10.5117 C.3     1  UNL1        0.0939
      5 C          62.4957   87.6594   11.4355 C.3     1  UNL1        0.1108
      6 N          62.3114   89.1319   11.2164 N.am    1  UNL1       -0.2753
      7 C          62.9668   90.1154   12.1401 C.2     1  UNL1        0.2462
      8 O          62.7825   91.5878   11.9210 O.2     1  UNL1       -0.2730
      9 C          61.4717   89.6208   10.0736 C.3     1  UNL1        0.1108
     10 C          60.8164   88.6373    9.1499 C.3     1  UNL1        0.0939
     11 N          65.1042   90.3062   13.6046 N.am    1  UNL1       -0.2927
     12 C          65.1591   91.3445   14.6858 C.2     1  UNL1        0.2508
     13 O          63.9162   91.7030   15.4452 O.2     1  UNL1       -0.2700
     14 H          65.9200   90.0710   13.1062 H       1  UNL1        0.1502
     15 C          66.4569   92.0244   15.0076 C.ar    1  UNL1        0.1068
     16 C          66.7387   92.4777   16.4095 C.ar    1  UNL1        0.0108
     17 C          68.0365   93.1576   16.7313 C.ar    1  UNL1        0.0210
     18 C          69.0525   93.3840   15.6512 C.ar    1  UNL1        0.1021
     19 N          68.7707   92.9307   14.2494 N.ar    1  UNL1       -0.2097
     20 C          67.4729   92.2508   13.9276 C.ar    1  UNL1        0.2340
     21 O          67.1911   91.7975   12.5259 O.3     1  UNL1       -0.4351
     22 C          66.9521   92.8089   11.4442 C.ar    1  UNL1        0.1576
     23 C          65.9492   93.9050   11.6507 C.ar    1  UNL1        0.0384
     24 C          65.7102   94.9165   10.5690 C.ar    1  UNL1        0.0070
     25 C          66.4741   94.8318    9.2809 C.ar    1  UNL1        0.0725
     26 C          67.4771   93.7356    9.0745 C.ar    1  UNL1        0.0183
     27 C          67.7161   92.7242   10.1561 C.ar    1  UNL1        0.0921
     28 CL         68.7191   91.6281    9.9497 Cl      1  UNL1       -0.0791
     29 C          66.2352   95.8431    8.1993 C.3     1  UNL1        0.4186
     30 F          65.9962   96.8545    7.1177 F       1  UNL1       -0.1659
     31 F          65.1973   96.5103    9.0524 F       1  UNL1       -0.1659
     32 F          67.2730   95.1760    7.3462 F       1  UNL1       -0.1659
     33 C          63.3483   88.4576   14.1038 C.3     1  UNL1        0.1715
     34 O          64.3543   87.5078   14.6833 O.3     1  UNL1       -0.3467
     35 C          63.8941   86.3088   15.4583 C.3     1  UNL1        0.1688
     36 C          63.5529   85.0370   14.7398 C.ar    1  UNL1        0.0105
     37 C          62.7154   83.9938   15.4183 C.ar    1  UNL1        0.0015
     38 C          62.3741   82.7221   14.6999 C.ar    1  UNL1        0.0398
     39 C          62.8704   82.4935   13.3028 C.ar    1  UNL1        0.1724
     40 C          63.7078   83.5367   12.6243 C.ar    1  UNL1        0.1721
     41 C          64.0491   84.8085   13.3428 C.ar    1  UNL1        0.0382
     42 O          64.2041   83.3082   11.2274 O.3     1  UNL1       -0.4684
     43 C          63.8628   82.0364   10.5089 C.3     1  UNL1        0.2526
     44 C          63.0253   80.9932   11.1875 C.3     1  UNL1        0.2526
     45 O          62.5291   81.2218   12.5844 O.3     1  UNL1       -0.4684
@<TRIPOS>BOND
     1     2     3    1
     2     3     4    1
     3     4     5    1
     4     5     6    1
     5     6     7   am
     6     7     8    2
     7     7     1    1
     8     1    33    1
     9    33    34    1
    10    34    35    1
    11    35    36    1
    12    36    37   ar
    13    37    38   ar
    14    38    39   ar
    15    39    40   ar
    16    40    41   ar
    17    40    42    1
    18    42    43    1
    19    43    44    1
    20    44    45    1
    21     1    11    1
    22    11    12   am
    23    12    13    2
    24    12    15    1
    25    15    16   ar
    26    16    17   ar
    27    17    18   ar
    28    18    19   ar
    29    19    20   ar
    30    20    21    1
    31    21    22    1
    32    22    23   ar
    33    23    24   ar
    34    24    25   ar
    35    25    29    1
    36    29    30    1
    37    29    31    1
    38    29    32    1
    39    25    26   ar
    40    26    27   ar
    41    27    28    1
    42     6     9    1
    43     9    10    1
    44    10     3    1
    45    41    36   ar
    46    20    15   ar
    47    27    22   ar
    48    45    39    1
    49    11    14    1
@<TRIPOS>MOLECULE
*****
 45 49 0 0 0
SMALL
GASTEIGER

@<TRIPOS>ATOM
      1 C          64.2355   90.5257   12.8648 C.3     1  UNL1        0.1789
      2 C          66.4581   96.1041    9.5195 C.3     1  UNL1        0.0897
      3 N          66.1209   94.9926   10.4686 N.3     1  UNL1       -0.2686
      4 C          65.2469   93.8602   10.0173 C.3     1  UNL1        0.0939
      5 C          64.9097   92.7486   10.9665 C.3     1  UNL1        0.1108
      6 N          65.4466   92.7695   12.3669 N.am    1  UNL1       -0.2753
      7 C          65.1095   91.6581   13.3161 C.2     1  UNL1        0.2462
      8 O          65.6464   91.6790   14.7165 O.2     1  UNL1       -0.2730
      9 C          66.3207   93.9020   12.8182 C.3     1  UNL1        0.1108
     10 C          66.6578   95.0135   11.8691 C.3     1  UNL1        0.0939
     11 N          64.0689   89.3144   13.7337 N.am    1  UNL1       -0.2927
     12 C          63.4895   89.4529   15.1104 C.2     1  UNL1        0.2508
     13 O          63.0767   90.8027   15.6181 O.2     1  UNL1       -0.2700
     14 H          64.3399   88.4285   13.4005 H       1  UNL1        0.1502
     15 C          63.3230   88.2417   15.9794 C.ar    1  UNL1        0.1068
     16 C          62.9532   88.4004   17.4244 C.ar    1  UNL1        0.0108
     17 C          62.7866   87.1891   18.2934 C.ar    1  UNL1        0.0210
     18 C          62.9899   85.8191   17.7173 C.ar    1  UNL1        0.1021
     19 N          63.3597   85.6604   16.2723 N.ar    1  UNL1       -0.2097
     20 C          63.5263   86.8717   15.4034 C.ar    1  UNL1        0.2340
     21 O          63.8961   86.7130   13.9584 O.3     1  UNL1       -0.4351
     22 C          63.7017   85.3918   13.2751 C.ar    1  UNL1        0.1576
     23 C          62.5411   85.1914   12.3462 C.ar    1  UNL1        0.0384
     24 C          62.3467   83.8702   11.6630 C.ar    1  UNL1        0.0070
     25 C          63.3129   82.7495   11.9087 C.ar    1  UNL1        0.0725
     26 C          64.4735   82.9499   12.8378 C.ar    1  UNL1        0.0183
     27 C          64.6678   84.2710   13.5209 C.ar    1  UNL1        0.0921
     28 CL         65.8284   84.4715   14.4499 Cl      1  UNL1       -0.0791
     29 C          63.1185   81.4283   11.2256 C.3     1  UNL1        0.4186
     30 F          62.9242   80.1072   10.5424 F       1  UNL1       -0.1659
     31 F          63.9417   81.9066   10.0664 F       1  UNL1       -0.1659
     32 F          62.2954   80.9500   12.3847 F       1  UNL1       -0.1659
     33 C          63.5279   90.6045   11.5444 C.3     1  UNL1        0.1715
     34 O          62.0291   90.6375   11.4975 O.3     1  UNL1       -0.3467
     35 C          61.2440   89.3779   11.7141 C.3     1  UNL1        0.1688
     36 C          61.0147   88.4314   10.5732 C.ar    1  UNL1        0.0105
     37 C          59.6665   88.3570    9.9198 C.ar    1  UNL1        0.0015
     38 C          59.4372   87.4106    8.7790 C.ar    1  UNL1        0.0398
     39 C          60.5561   86.5386    8.2913 C.ar    1  UNL1        0.1724
     40 C          61.9043   86.6130    8.9447 C.ar    1  UNL1        0.1721
     41 C          62.1336   87.5594   10.0856 C.ar    1  UNL1        0.0382
     42 O          63.0231   85.7410    8.4571 O.3     1  UNL1       -0.4684
     43 C          62.7938   84.7946    7.3162 C.3     1  UNL1        0.2526
     44 C          61.4456   84.7202    6.6629 C.3     1  UNL1        0.2526
     45 O          60.3267   85.5922    7.1504 O.3     1  UNL1       -0.4684
@<TRIPOS>BOND
     1     2     3    1
     2     3     4    1
     3     4     5    1
     4     5     6    1
     5     6     7   am
     6     7     8    2
     7     7     1    1
     8     1    33    1
     9    33    34    1
    10    34    35    1
    11    35    36    1
    12    36    37   ar
    13    37    38   ar
    14    38    39   ar
    15    39    40   ar
    16    40    41   ar
    17    40    42    1
    18    42    43    1
    19    43    44    1
    20    44    45    1
    21     1    11    1
    22    11    12   am
    23    12    13    2
    24    12    15    1
    25    15    16   ar
    26    16    17   ar
    27    17    18   ar
    28    18    19   ar
    29    19    20   ar
    30    20    21    1
    31    21    22    1
    32    22    23   ar
    33    23    24   ar
    34    24    25   ar
    35    25    29    1
    36    29    30    1
    37    29    31    1
    38    29    32    1
    39    25    26   ar
    40    26    27   ar
    41    27    28    1
    42     6     9    1
    43     9    10    1
    44    10     3    1
    45    41    36   ar
    46    20    15   ar
    47    27    22   ar
    48    45    39    1
    49    11    14    1
@<TRIPOS>MOLECULE
*****
 45 49 0 0 0
SMALL
GASTEIGER

@<TRIPOS>ATOM
      1 C          63.0987   90.0702   12.2496 C.3     1  UNL1        0.1789
      2 C          60.4541   85.8752    7.4895 C.3     1  UNL1        0.0897
      3 N          60.8152   86.9624    8.4579 N.3     1  UNL1       -0.2686
      4 C          62.0153   86.8088    9.3445 C.3     1  UNL1        0.0939
      5 C          62.3765   87.8960   10.3129 C.3     1  UNL1        0.1108
      6 N          61.5375   89.1367   10.3946 N.am    1  UNL1       -0.2753
      7 C          61.8986   90.2238   11.3629 C.2     1  UNL1        0.2462
      8 O          61.0596   91.4646   11.4446 O.2     1  UNL1       -0.2730
      9 C          60.3373   89.2903    9.5079 C.3     1  UNL1        0.1108
     10 C          59.9762   88.2031    8.5396 C.3     1  UNL1        0.0939
     11 N          63.1543   88.9537   13.2497 N.am    1  UNL1       -0.2927
     12 C          63.1682   89.2619   14.7177 C.2     1  UNL1        0.2508
     13 O          63.1266   90.6864   15.1855 O.2     1  UNL1       -0.2700
     14 H          63.1816   88.0187   12.9427 H       1  UNL1        0.1502
     15 C          63.2238   88.1454   15.7179 C.ar    1  UNL1        0.1068
     16 C          62.8813   88.4077   17.1546 C.ar    1  UNL1        0.0108
     17 C          62.9368   87.2912   18.1548 C.ar    1  UNL1        0.0210
     18 C          63.3350   85.9124   17.7183 C.ar    1  UNL1        0.1021
     19 N          63.6775   85.6502   16.2817 N.ar    1  UNL1       -0.2097
     20 C          63.6219   86.7666   15.2815 C.ar    1  UNL1        0.2340
     21 O          63.9644   86.5044   13.8449 O.3     1  UNL1       -0.4351
     22 C          63.7245   85.1474   13.2523 C.ar    1  UNL1        0.1576
     23 C          62.5171   84.9058   12.3959 C.ar    1  UNL1        0.0384
     24 C          62.2771   83.5488   11.8033 C.ar    1  UNL1        0.0070
     25 C          63.2448   82.4334   12.0672 C.ar    1  UNL1        0.0725
     26 C          64.4523   82.6751   12.9237 C.ar    1  UNL1        0.0183
     27 C          64.6922   84.0320   13.5162 C.ar    1  UNL1        0.0921
     28 CL         65.8997   84.2737   14.3728 Cl      1  UNL1       -0.0791
     29 C          63.0049   81.0765   11.4747 C.3     1  UNL1        0.4186
     30 F          62.7651   79.7196   10.8821 F       1  UNL1       -0.1659
     31 F          62.3458   80.6368   12.7483 F       1  UNL1       -0.1659
     32 F          63.6640   81.5162   10.2010 F       1  UNL1       -0.1659
     33 C          64.2433   91.0331   12.1360 C.3     1  UNL1        0.1715
     34 O          65.3236   91.0400   13.1765 O.3     1  UNL1       -0.3467
     35 C          66.3971   92.0868   13.1362 C.3     1  UNL1        0.1688
     36 C          66.6850   92.8170   11.8578 C.ar    1  UNL1        0.0105
     37 C          67.6805   92.2599   10.8838 C.ar    1  UNL1        0.0015
     38 C          67.9684   92.9900    9.6055 C.ar    1  UNL1        0.0398
     39 C          67.2608   94.2772    9.3012 C.ar    1  UNL1        0.1724
     40 C          66.2654   94.8342   10.2752 C.ar    1  UNL1        0.1721
     41 C          65.9775   94.1041   11.5535 C.ar    1  UNL1        0.0382
     42 O          65.5578   96.1213    9.9709 O.3     1  UNL1       -0.4684
     43 C          65.8457   96.8514    8.6926 C.3     1  UNL1        0.2526
     44 C          66.8412   96.2943    7.7186 C.3     1  UNL1        0.2526
     45 O          67.5488   95.0072    8.0229 O.3     1  UNL1       -0.4684
@<TRIPOS>BOND
     1     2     3    1
     2     3     4    1
     3     4     5    1
     4     5     6    1
     5     6     7   am
     6     7     8    2
     7     7     1    1
     8     1    33    1
     9    33    34    1
    10    34    35    1
    11    35    36    1
    12    36    37   ar
    13    37    38   ar
    14    38    39   ar
    15    39    40   ar
    16    40    41   ar
    17    40    42    1
    18    42    43    1
    19    43    44    1
    20    44    45    1
    21     1    11    1
    22    11    12   am
    23    12    13    2
    24    12    15    1
    25    15    16   ar
    26    16    17   ar
    27    17    18   ar
    28    18    19   ar
    29    19    20   ar
    30    20    21    1
    31    21    22    1
    32    22    23   ar
    33    23    24   ar
    34    24    25   ar
    35    25    29    1
    36    29    30    1
    37    29    31    1
    38    29    32    1
    39    25    26   ar
    40    26    27   ar
    41    27    28    1
    42     6     9    1
    43     9    10    1
    44    10     3    1
    45    41    36   ar
    46    20    15   ar
    47    27    22   ar
    48    45    39    1
    49    11    14    1
@<TRIPOS>MOLECULE
*****
 45 49 0 0 0
SMALL
GASTEIGER

@<TRIPOS>ATOM
      1 C          62.3667   90.1176   11.8477 C.3     1  UNL1        0.1789
      2 C          60.8600   85.2996    7.1822 C.3     1  UNL1        0.0897
      3 N          60.9576   86.4828    8.0991 N.3     1  UNL1       -0.2686
      4 C          62.0741   86.5682    9.0971 C.3     1  UNL1        0.0939
      5 C          62.1717   87.7513   10.0140 C.3     1  UNL1        0.1108
      6 N          61.1527   88.8491    9.9328 N.am    1  UNL1       -0.2753
      7 C          61.2502   90.0322   10.8497 C.2     1  UNL1        0.2462
      8 O          60.2312   91.1300   10.7685 O.2     1  UNL1       -0.2730
      9 C          60.0361   88.7636    8.9348 C.3     1  UNL1        0.1108
     10 C          59.9386   87.5805    8.0179 C.3     1  UNL1        0.0939
     11 N          62.4662   89.1055   12.9503 N.am    1  UNL1       -0.2927
     12 C          63.0189   89.5040   14.2866 C.2     1  UNL1        0.2508
     13 O          63.4722   90.9147   14.5203 O.2     1  UNL1       -0.2700
     14 H          62.1687   88.1796   12.7969 H       1  UNL1        0.1502
     15 C          63.1184   88.4919   15.3892 C.ar    1  UNL1        0.1068
     16 C          62.7942   88.8854   16.7999 C.ar    1  UNL1        0.0108
     17 C          62.8936   87.8733   17.9025 C.ar    1  UNL1        0.0210
     18 C          63.3173   86.4677   17.5944 C.ar    1  UNL1        0.1021
     19 N          63.6414   86.0743   16.1837 N.ar    1  UNL1       -0.2097
     20 C          63.5419   87.0864   15.0811 C.ar    1  UNL1        0.2340
     21 O          63.8661   86.6930   13.6704 O.3     1  UNL1       -0.4351
     22 C          63.6499   85.2794   13.2175 C.ar    1  UNL1        0.1576
     23 C          62.4476   84.9324   12.3904 C.ar    1  UNL1        0.0384
     24 C          62.2314   83.5188   11.9374 C.ar    1  UNL1        0.0070
     25 C          63.2175   82.4522   12.3116 C.ar    1  UNL1        0.0725
     26 C          64.4198   82.7993   13.1387 C.ar    1  UNL1        0.0183
     27 C          64.6360   84.2128   13.5916 C.ar    1  UNL1        0.0921
     28 CL         65.8383   84.5598   14.4188 Cl      1  UNL1       -0.0791
     29 C          63.0013   81.0387   11.8587 C.3     1  UNL1        0.4186
     30 F          62.7852   79.6252   11.4058 F       1  UNL1       -0.1659
     31 F          63.1045   81.4810   10.4291 F       1  UNL1       -0.1659
     32 F          62.8982   80.5964   13.2883 F       1  UNL1       -0.1659
     33 C          63.3839   91.2152   11.7431 C.3     1  UNL1        0.1715
     34 O          63.7197   91.8014   10.4039 O.3     1  UNL1       -0.3467
     35 C          64.9670   92.6169   10.2337 C.3     1  UNL1        0.1688
     36 C          66.0584   92.5413   11.2600 C.ar    1  UNL1        0.0105
     37 C          67.4180   92.0391   10.8734 C.ar    1  UNL1        0.0015
     38 C          68.5093   91.9635   11.8996 C.ar    1  UNL1        0.0398
     39 C          68.2412   92.3901   13.3125 C.ar    1  UNL1        0.1724
     40 C          66.8817   92.8923   13.6991 C.ar    1  UNL1        0.1721
     41 C          65.7902   92.9679   12.6728 C.ar    1  UNL1        0.0382
     42 O          66.6135   93.3189   15.1119 O.3     1  UNL1       -0.4684
     43 C          67.7049   93.2433   16.1381 C.3     1  UNL1        0.2526
     44 C          69.0644   92.7411   15.7515 C.3     1  UNL1        0.2526
     45 O          69.3326   92.3145   14.3387 O.3     1  UNL1       -0.4684
@<TRIPOS>BOND
     1     2     3    1
     2     3     4    1
     3     4     5    1
     4     5     6    1
     5     6     7   am
     6     7     8    2
     7     7     1    1
     8     1    33    1
     9    33    34    1
    10    34    35    1
    11    35    36    1
    12    36    37   ar
    13    37    38   ar
    14    38    39   ar
    15    39    40   ar
    16    40    41   ar
    17    40    42    1
    18    42    43    1
    19    43    44    1
    20    44    45    1
    21     1    11    1
    22    11    12   am
    23    12    13    2
    24    12    15    1
    25    15    16   ar
    26    16    17   ar
    27    17    18   ar
    28    18    19   ar
    29    19    20   ar
    30    20    21    1
    31    21    22    1
    32    22    23   ar
    33    23    24   ar
    34    24    25   ar
    35    25    29    1
    36    29    30    1
    37    29    31    1
    38    29    32    1
    39    25    26   ar
    40    26    27   ar
    41    27    28    1
    42     6     9    1
    43     9    10    1
    44    10     3    1
    45    41    36   ar
    46    20    15   ar
    47    27    22   ar
    48    45    39    1
    49    11    14    1
@<TRIPOS>MOLECULE
*****
 45 49 0 0 0
SMALL
GASTEIGER

@<TRIPOS>ATOM
      1 C          63.0146   90.2144   12.0956 C.3     1  UNL1        0.1789
      2 C          68.7039   92.7521   15.0010 C.3     1  UNL1        0.0897
      3 N          67.4993   92.4067   14.1765 N.3     1  UNL1       -0.2686
      4 C          66.6281   91.2506   14.5691 C.3     1  UNL1        0.0939
      5 C          65.4236   90.9051   13.7446 C.3     1  UNL1        0.1108
      6 N          65.0903   91.7160   12.5274 N.am    1  UNL1       -0.2753
      7 C          63.8858   91.3706   11.7029 C.2     1  UNL1        0.2462
      8 O          63.5525   92.1814   10.4858 O.2     1  UNL1       -0.2730
      9 C          65.9615   92.8722   12.1348 C.3     1  UNL1        0.1108
     10 C          67.1660   93.2176   12.9593 C.3     1  UNL1        0.0939
     11 N          62.6277   89.1861   11.0744 N.am    1  UNL1       -0.2927
     12 C          61.2204   89.1345   10.5578 C.2     1  UNL1        0.2508
     13 O          60.2000   90.1113   11.0623 O.2     1  UNL1       -0.2700
     14 H          63.2975   88.5450   10.7432 H       1  UNL1        0.1502
     15 C          60.8335   88.1062    9.5366 C.ar    1  UNL1        0.1068
     16 C          59.7647   88.4138    8.5300 C.ar    1  UNL1        0.0108
     17 C          59.3779   87.3855    7.5088 C.ar    1  UNL1        0.0210
     18 C          60.0598   86.0495    7.4942 C.ar    1  UNL1        0.1021
     19 N          61.1286   85.7419    8.5007 N.ar    1  UNL1       -0.2097
     20 C          61.5154   86.7703    9.5219 C.ar    1  UNL1        0.2340
     21 O          62.5842   86.4627   10.5284 O.3     1  UNL1       -0.4351
     22 C          62.6200   85.1209   11.1981 C.ar    1  UNL1        0.1576
     23 C          62.0537   84.9556   12.5772 C.ar    1  UNL1        0.0384
     24 C          62.0895   83.6138   13.2468 C.ar    1  UNL1        0.0070
     25 C          62.6916   82.4374   12.5373 C.ar    1  UNL1        0.0725
     26 C          63.2580   82.6027   11.1582 C.ar    1  UNL1        0.0183
     27 C          63.2221   83.9444   10.4886 C.ar    1  UNL1        0.0921
     28 CL         63.7885   84.1098    9.1094 Cl      1  UNL1       -0.0791
     29 C          62.7275   81.0956   13.2069 C.3     1  UNL1        0.4186
     30 F          62.7633   79.7539   13.8765 F       1  UNL1       -0.1659
     31 F          64.2207   81.0661   13.0679 F       1  UNL1       -0.1659
     32 F          61.2343   81.1252   13.3460 F       1  UNL1       -0.1659
     33 C          62.5302   90.0866   13.5095 C.3     1  UNL1        0.1715
     34 O          63.1848   90.8800   14.6012 O.3     1  UNL1       -0.3467
     35 C          63.4572   90.2427   15.9314 C.3     1  UNL1        0.1688
     36 C          63.5152   88.7484   16.0494 C.ar    1  UNL1        0.0105
     37 C          62.7829   88.0548   17.1596 C.ar    1  UNL1        0.0015
     38 C          62.8408   86.5606   17.2776 C.ar    1  UNL1        0.0398
     39 C          63.6310   85.7600   16.2854 C.ar    1  UNL1        0.1724
     40 C          64.3634   86.4536   15.1751 C.ar    1  UNL1        0.1721
     41 C          64.3054   87.9479   15.0572 C.ar    1  UNL1        0.0382
     42 O          65.1536   85.6530   14.1829 O.3     1  UNL1       -0.4684
     43 C          65.2115   84.1588   14.3009 C.3     1  UNL1        0.2526
     44 C          64.4792   83.4652   15.4111 C.3     1  UNL1        0.2526
     45 O          63.6889   84.2658   16.4034 O.3     1  UNL1       -0.4684
@<TRIPOS>BOND
     1     2     3    1
     2     3     4    1
     3     4     5    1
     4     5     6    1
     5     6     7   am
     6     7     8    2
     7     7     1    1
     8     1    33    1
     9    33    34    1
    10    34    35    1
    11    35    36    1
    12    36    37   ar
    13    37    38   ar
    14    38    39   ar
    15    39    40   ar
    16    40    41   ar
    17    40    42    1
    18    42    43    1
    19    43    44    1
    20    44    45    1
    21     1    11    1
    22    11    12   am
    23    12    13    2
    24    12    15    1
    25    15    16   ar
    26    16    17   ar
    27    17    18   ar
    28    18    19   ar
    29    19    20   ar
    30    20    21    1
    31    21    22    1
    32    22    23   ar
    33    23    24   ar
    34    24    25   ar
    35    25    29    1
    36    29    30    1
    37    29    31    1
    38    29    32    1
    39    25    26   ar
    40    26    27   ar
    41    27    28    1
    42     6     9    1
    43     9    10    1
    44    10     3    1
    45    41    36   ar
    46    20    15   ar
    47    27    22   ar
    48    45    39    1
    49    11    14    1
@<TRIPOS>MOLECULE
*****
 45 49 0 0 0
SMALL
GASTEIGER

@<TRIPOS>ATOM
      1 C          64.1208   89.8135   13.8898 C.3     1  UNL1        0.1789
      2 C          60.9158   85.9986    9.1544 C.3     1  UNL1        0.0897
      3 N          61.5091   87.0519   10.0425 N.3     1  UNL1       -0.2686
      4 C          62.3407   86.6538   11.2256 C.3     1  UNL1        0.0939
      5 C          62.9341   87.7071   12.1138 C.3     1  UNL1        0.1108
      6 N          62.6958   89.1583   11.8186 N.am    1  UNL1       -0.2753
      7 C          63.2892   90.2115   12.7067 C.2     1  UNL1        0.2462
      8 O          63.0509   91.6628   12.4115 O.2     1  UNL1       -0.2730
      9 C          61.8642   89.5563   10.6354 C.3     1  UNL1        0.1108
     10 C          61.2708   88.5031    9.7473 C.3     1  UNL1        0.0939
     11 N          65.4102   90.5254   14.1739 N.am    1  UNL1       -0.2927
     12 C          65.4505   91.6264   15.1919 C.2     1  UNL1        0.2508
     13 O          64.2015   92.0155   15.9257 O.2     1  UNL1       -0.2700
     14 H          66.2299   90.2700   13.6922 H       1  UNL1        0.1502
     15 C          66.7399   92.3383   15.4759 C.ar    1  UNL1        0.1068
     16 C          67.7279   91.7458   16.4365 C.ar    1  UNL1        0.0108
     17 C          69.0173   92.4577   16.7206 C.ar    1  UNL1        0.0210
     18 C          69.3186   93.7621   16.0440 C.ar    1  UNL1        0.1021
     19 N          68.3306   94.3546   15.0835 N.ar    1  UNL1       -0.2097
     20 C          67.0412   93.6427   14.7994 C.ar    1  UNL1        0.2340
     21 O          66.0532   94.2352   13.8389 O.3     1  UNL1       -0.4351
     22 C          66.3683   94.2832   12.3731 C.ar    1  UNL1        0.1576
     23 C          66.7103   93.0213   11.6378 C.ar    1  UNL1        0.0384
     24 C          67.0254   93.0693   10.1720 C.ar    1  UNL1        0.0070
     25 C          66.9985   94.3791    9.4416 C.ar    1  UNL1        0.0725
     26 C          66.6565   95.6410   10.1769 C.ar    1  UNL1        0.0183
     27 C          66.3414   95.5930   11.6426 C.ar    1  UNL1        0.0921
     28 CL         65.9994   96.8550   12.3780 Cl      1  UNL1       -0.0791
     29 C          67.3136   94.4271    7.9759 C.3     1  UNL1        0.4186
     30 F          67.6287   94.4751    6.5101 F       1  UNL1       -0.1659
     31 F          66.4489   95.6440    7.8298 F       1  UNL1       -0.1659
     32 F          68.1783   93.2102    8.1219 F       1  UNL1       -0.1659
     33 C          63.6630   88.7035   14.7890 C.3     1  UNL1        0.1715
     34 O          64.4225   87.4107   14.8309 O.3     1  UNL1       -0.3467
     35 C          63.8294   86.2143   15.5141 C.3     1  UNL1        0.1688
     36 C          63.7194   84.9100   14.7813 C.ar    1  UNL1        0.0105
     37 C          64.7323   84.5498   13.7353 C.ar    1  UNL1        0.0015
     38 C          64.6224   83.2456   13.0025 C.ar    1  UNL1        0.0398
     39 C          63.4995   82.3016   13.3157 C.ar    1  UNL1        0.1724
     40 C          62.4865   82.6619   14.3618 C.ar    1  UNL1        0.1721
     41 C          62.5965   83.9662   15.0946 C.ar    1  UNL1        0.0382
     42 O          61.3636   81.7180   14.6750 O.3     1  UNL1       -0.4684
     43 C          61.2537   80.4139   13.9422 C.3     1  UNL1        0.2526
     44 C          62.2666   80.0536   12.8962 C.3     1  UNL1        0.2526
     45 O          63.3895   80.9975   12.5830 O.3     1  UNL1       -0.4684
@<TRIPOS>BOND
     1     2     3    1
     2     3     4    1
     3     4     5    1
     4     5     6    1
     5     6     7   am
     6     7     8    2
     7     7     1    1
     8     1    33    1
     9    33    34    1
    10    34    35    1
    11    35    36    1
    12    36    37   ar
    13    37    38   ar
    14    38    39   ar
    15    39    40   ar
    16    40    41   ar
    17    40    42    1
    18    42    43    1
    19    43    44    1
    20    44    45    1
    21     1    11    1
    22    11    12   am
    23    12    13    2
    24    12    15    1
    25    15    16   ar
    26    16    17   ar
    27    17    18   ar
    28    18    19   ar
    29    19    20   ar
    30    20    21    1
    31    21    22    1
    32    22    23   ar
    33    23    24   ar
    34    24    25   ar
    35    25    29    1
    36    29    30    1
    37    29    31    1
    38    29    32    1
    39    25    26   ar
    40    26    27   ar
    41    27    28    1
    42     6     9    1
    43     9    10    1
    44    10     3    1
    45    41    36   ar
    46    20    15   ar
    47    27    22   ar
    48    45    39    1
    49    11    14    1
@<TRIPOS>MOLECULE
*****
 45 49 0 0 0
SMALL
GASTEIGER

@<TRIPOS>ATOM
      1 C          63.4257   90.9298   12.4456 C.3     1  UNL1        0.1789
      2 C          68.8346   92.7996   16.2532 C.3     1  UNL1        0.0897
      3 N          67.7860   92.5340   15.2139 N.3     1  UNL1       -0.2686
      4 C          66.5712   91.7266   15.5634 C.3     1  UNL1        0.0939
      5 C          65.5227   91.4610   14.5241 C.3     1  UNL1        0.1108
      6 N          65.6890   92.0028   13.1354 N.am    1  UNL1       -0.2753
      7 C          64.6405   91.7373   12.0961 C.2     1  UNL1        0.2462
      8 O          64.8068   92.2791   10.7073 O.2     1  UNL1       -0.2730
      9 C          66.9039   92.8103   12.7859 C.3     1  UNL1        0.1108
     10 C          67.9524   93.0759   13.8251 C.3     1  UNL1        0.0939
     11 N          63.3675   90.1877   13.7479 N.am    1  UNL1       -0.2927
     12 C          63.4723   88.6914   13.7638 C.2     1  UNL1        0.2508
     13 O          63.6352   87.9373   12.4774 O.2     1  UNL1       -0.2700
     14 H          63.2606   90.6827   14.5922 H       1  UNL1        0.1502
     15 C          63.4142   87.9493   15.0661 C.ar    1  UNL1        0.1068
     16 C          62.8632   88.6218   16.2885 C.ar    1  UNL1        0.0108
     17 C          62.8051   87.8797   17.5908 C.ar    1  UNL1        0.0210
     18 C          63.2979   86.4651   17.6706 C.ar    1  UNL1        0.1021
     19 N          63.8488   85.7928   16.4482 N.ar    1  UNL1       -0.2097
     20 C          63.9069   86.5349   15.1459 C.ar    1  UNL1        0.2340
     21 O          64.4578   85.8625   13.9235 O.3     1  UNL1       -0.4351
     22 C          64.0231   84.4703   13.5730 C.ar    1  UNL1        0.1576
     23 C          64.6504   83.2934   14.2597 C.ar    1  UNL1        0.0384
     24 C          64.2156   81.9012   13.9092 C.ar    1  UNL1        0.0070
     25 C          63.1536   81.6859   12.8720 C.ar    1  UNL1        0.0725
     26 C          62.5264   82.8628   12.1853 C.ar    1  UNL1        0.0183
     27 C          62.9611   84.2549   12.5358 C.ar    1  UNL1        0.0921
     28 CL         62.3338   85.4318   11.8491 Cl      1  UNL1       -0.0791
     29 C          62.7189   80.2937   12.5215 C.3     1  UNL1        0.4186
     30 F          62.2842   78.9016   12.1710 F       1  UNL1       -0.1659
     31 F          62.6136   79.9594   13.9800 F       1  UNL1       -0.1659
     32 F          62.8242   80.6280   11.0631 F       1  UNL1       -0.1659
     33 C          62.2689   90.8644   11.4929 C.3     1  UNL1        0.1715
     34 O          61.1784   89.8568   11.7053 O.3     1  UNL1       -0.3467
     35 C          60.1080   89.6804   10.6693 C.3     1  UNL1        0.1688
     36 C          60.1974   88.5539    9.6828 C.ar    1  UNL1        0.0105
     37 C          59.0130   88.2085    8.8296 C.ar    1  UNL1        0.0015
     38 C          59.1023   87.0820    7.8431 C.ar    1  UNL1        0.0398
     39 C          60.3759   86.3009    7.7100 C.ar    1  UNL1        0.1724
     40 C          61.5603   86.6462    8.5632 C.ar    1  UNL1        0.1721
     41 C          61.4710   87.7728    9.5497 C.ar    1  UNL1        0.0382
     42 O          62.8339   85.8651    8.4301 O.3     1  UNL1       -0.4684
     43 C          62.9231   84.7387    7.4437 C.3     1  UNL1        0.2526
     44 C          61.7388   84.3933    6.5904 C.3     1  UNL1        0.2526
     45 O          60.4652   85.1744    6.7235 O.3     1  UNL1       -0.4684
@<TRIPOS>BOND
     1     2     3    1
     2     3     4    1
     3     4     5    1
     4     5     6    1
     5     6     7   am
     6     7     8    2
     7     7     1    1
     8     1    33    1
     9    33    34    1
    10    34    35    1
    11    35    36    1
    12    36    37   ar
    13    37    38   ar
    14    38    39   ar
    15    39    40   ar
    16    40    41   ar
    17    40    42    1
    18    42    43    1
    19    43    44    1
    20    44    45    1
    21     1    11    1
    22    11    12   am
    23    12    13    2
    24    12    15    1
    25    15    16   ar
    26    16    17   ar
    27    17    18   ar
    28    18    19   ar
    29    19    20   ar
    30    20    21    1
    31    21    22    1
    32    22    23   ar
    33    23    24   ar
    34    24    25   ar
    35    25    29    1
    36    29    30    1
    37    29    31    1
    38    29    32    1
    39    25    26   ar
    40    26    27   ar
    41    27    28    1
    42     6     9    1
    43     9    10    1
    44    10     3    1
    45    41    36   ar
    46    20    15   ar
    47    27    22   ar
    48    45    39    1
    49    11    14    1
@<TRIPOS>MOLECULE
*****
 45 49 0 0 0
SMALL
GASTEIGER

@<TRIPOS>ATOM
      1 C          61.6806   88.1176    9.8670 C.3     1  UNL1        0.1789
      2 C          64.1085   81.7353   10.6556 C.3     1  UNL1        0.0897
      3 N          63.4224   83.0679   10.7138 N.3     1  UNL1       -0.2686
      4 C          63.7389   84.1197    9.6923 C.3     1  UNL1        0.0939
      5 C          63.0528   85.4524    9.7505 C.3     1  UNL1        0.1108
      6 N          62.0502   85.7332   10.8303 N.am    1  UNL1       -0.2753
      7 C          61.3641   87.0658   10.8886 C.2     1  UNL1        0.2462
      8 O          60.3615   87.3466   11.9683 O.2     1  UNL1       -0.2730
      9 C          61.7337   84.6814   11.8519 C.3     1  UNL1        0.1108
     10 C          62.4198   83.3488   11.7936 C.3     1  UNL1        0.0939
     11 N          62.7643   89.1199   10.1335 N.am    1  UNL1       -0.2927
     12 C          62.5280   90.2402   11.1026 C.2     1  UNL1        0.2508
     13 O          61.2080   90.3582   11.8052 O.2     1  UNL1       -0.2700
     14 H          63.6307   89.0424    9.6723 H       1  UNL1        0.1502
     15 C          63.6117   91.2425   11.3690 C.ar    1  UNL1        0.1068
     16 C          64.3375   91.8845   10.2240 C.ar    1  UNL1        0.0108
     17 C          65.4212   92.8868   10.4904 C.ar    1  UNL1        0.0210
     18 C          65.7791   93.2471   11.9019 C.ar    1  UNL1        0.1021
     19 N          65.0532   92.6051   13.0469 N.ar    1  UNL1       -0.2097
     20 C          63.9695   91.6028   12.7804 C.ar    1  UNL1        0.2340
     21 O          63.2437   90.9608   13.9254 O.3     1  UNL1       -0.4351
     22 C          63.5119   89.5266   14.2738 C.ar    1  UNL1        0.1576
     23 C          63.7644   88.5251   13.1861 C.ar    1  UNL1        0.0384
     24 C          64.0326   87.0910   13.5345 C.ar    1  UNL1        0.0070
     25 C          64.0482   86.6584   14.9707 C.ar    1  UNL1        0.0725
     26 C          63.7957   87.6600   16.0585 C.ar    1  UNL1        0.0183
     27 C          63.5275   89.0941   15.7100 C.ar    1  UNL1        0.0921
     28 CL         63.2750   90.0957   16.7977 Cl      1  UNL1       -0.0791
     29 C          64.3164   85.2243   15.3192 C.3     1  UNL1        0.4186
     30 F          64.5845   83.7903   15.6677 F       1  UNL1       -0.1659
     31 F          63.9356   85.4993   16.7437 F       1  UNL1       -0.1659
     32 F          64.6972   84.9494   13.8947 F       1  UNL1       -0.1659
     33 C          60.9134   88.1671    8.5790 C.3     1  UNL1        0.1715
     34 O          59.9570   89.2928    8.3185 O.3     1  UNL1       -0.3467
     35 C          59.0526   89.2470    7.1227 C.3     1  UNL1        0.1688
     36 C          59.2124   90.2539    6.0224 C.ar    1  UNL1        0.0105
     37 C          58.0229   91.0262    5.5339 C.ar    1  UNL1        0.0015
     38 C          58.1826   92.0331    4.4337 C.ar    1  UNL1        0.0398
     39 C          59.5320   92.2677    3.8218 C.ar    1  UNL1        0.1724
     40 C          60.7215   91.4954    4.3102 C.ar    1  UNL1        0.1721
     41 C          60.5617   90.4885    5.4106 C.ar    1  UNL1        0.0382
     42 O          62.0708   91.7300    3.6984 O.3     1  UNL1       -0.4684
     43 C          62.2305   92.7368    2.5982 C.3     1  UNL1        0.2526
     44 C          61.0410   93.5091    2.1097 C.3     1  UNL1        0.2526
     45 O          59.6917   93.2746    2.7215 O.3     1  UNL1       -0.4684
@<TRIPOS>BOND
     1     2     3    1
     2     3     4    1
     3     4     5    1
     4     5     6    1
     5     6     7   am
     6     7     8    2
     7     7     1    1
     8     1    33    1
     9    33    34    1
    10    34    35    1
    11    35    36    1
    12    36    37   ar
    13    37    38   ar
    14    38    39   ar
    15    39    40   ar
    16    40    41   ar
    17    40    42    1
    18    42    43    1
    19    43    44    1
    20    44    45    1
    21     1    11    1
    22    11    12   am
    23    12    13    2
    24    12    15    1
    25    15    16   ar
    26    16    17   ar
    27    17    18   ar
    28    18    19   ar
    29    19    20   ar
    30    20    21    1
    31    21    22    1
    32    22    23   ar
    33    23    24   ar
    34    24    25   ar
    35    25    29    1
    36    29    30    1
    37    29    31    1
    38    29    32    1
    39    25    26   ar
    40    26    27   ar
    41    27    28    1
    42     6     9    1
    43     9    10    1
    44    10     3    1
    45    41    36   ar
    46    20    15   ar
    47    27    22   ar
    48    45    39    1
    49    11    14    1
@<TRIPOS>MOLECULE
*****
 45 49 0 0 0
SMALL
GASTEIGER

@<TRIPOS>ATOM
      1 C          64.2454   91.2095   13.6150 C.3     1  UNL1        0.1789
      2 C          66.8238   95.5984    8.9956 C.3     1  UNL1        0.0897
      3 N          66.4162   94.7889   10.1909 N.3     1  UNL1       -0.2686
      4 C          65.4680   93.6380   10.0293 C.3     1  UNL1        0.0939
      5 C          65.0604   92.8284   11.2246 C.3     1  UNL1        0.1108
      6 N          65.6011   93.1699   12.5814 N.am    1  UNL1       -0.2753
      7 C          65.1936   92.3604   13.7766 C.2     1  UNL1        0.2462
      8 O          65.7342   92.7019   15.1335 O.2     1  UNL1       -0.2730
      9 C          66.5494   94.3209   12.7430 C.3     1  UNL1        0.1108
     10 C          66.9569   95.1304   11.5478 C.3     1  UNL1        0.0939
     11 N          64.0111   90.2647   14.7563 N.am    1  UNL1       -0.2927
     12 C          63.7913   88.8052   14.4887 C.2     1  UNL1        0.2508
     13 O          63.8057   88.2905   13.0799 O.2     1  UNL1       -0.2700
     14 H          64.0016   90.6026   15.6810 H       1  UNL1        0.1502
     15 C          63.5571   87.8605   15.6300 C.ar    1  UNL1        0.1068
     16 C          63.0297   88.3776   16.9356 C.ar    1  UNL1        0.0108
     17 C          62.7955   87.4329   18.0769 C.ar    1  UNL1        0.0210
     18 C          63.0886   85.9709   17.9126 C.ar    1  UNL1        0.1021
     19 N          63.6159   85.4538   16.6071 N.ar    1  UNL1       -0.2097
     20 C          63.8502   86.3986   15.4658 C.ar    1  UNL1        0.2340
     21 O          64.3775   85.8815   14.1603 O.3     1  UNL1       -0.4351
     22 C          63.9856   84.5150   13.6815 C.ar    1  UNL1        0.1576
     23 C          64.6636   83.3005   14.2430 C.ar    1  UNL1        0.0384
     24 C          64.2716   81.9340   13.7642 C.ar    1  UNL1        0.0070
     25 C          63.2017   81.7821   12.7239 C.ar    1  UNL1        0.0725
     26 C          62.5237   82.9967   12.1624 C.ar    1  UNL1        0.0183
     27 C          62.9156   84.3631   12.6412 C.ar    1  UNL1        0.0921
     28 CL         62.2376   85.5776   12.0797 Cl      1  UNL1       -0.0791
     29 C          62.8098   80.4157   12.2451 C.3     1  UNL1        0.4186
     30 F          62.4178   79.0493   11.7663 F       1  UNL1       -0.1659
     31 F          63.0128   80.8549   10.8253 F       1  UNL1       -0.1659
     32 F          62.6067   79.9764   13.6649 F       1  UNL1       -0.1659
     33 C          63.5313   91.0033   12.3120 C.3     1  UNL1        0.1715
     34 O          62.0322   90.9658   12.2760 O.3     1  UNL1       -0.3467
     35 C          61.3157   90.8742   10.9615 C.3     1  UNL1        0.1688
     36 C          61.3273   89.5884   10.1890 C.ar    1  UNL1        0.0105
     37 C          62.5755   88.7584   10.1328 C.ar    1  UNL1        0.0015
     38 C          62.5871   87.4727    9.3604 C.ar    1  UNL1        0.0398
     39 C          61.3504   87.0168    8.6440 C.ar    1  UNL1        0.1724
     40 C          60.1022   87.8468    8.7002 C.ar    1  UNL1        0.1721
     41 C          60.0907   89.1326    9.4727 C.ar    1  UNL1        0.0382
     42 O          58.8657   87.3911    7.9839 O.3     1  UNL1       -0.4684
     43 C          58.8773   86.1054    7.2114 C.3     1  UNL1        0.2526
     44 C          60.1255   85.2754    7.1553 C.3     1  UNL1        0.2526
     45 O          61.3620   85.7311    7.8716 O.3     1  UNL1       -0.4684
@<TRIPOS>BOND
     1     2     3    1
     2     3     4    1
     3     4     5    1
     4     5     6    1
     5     6     7   am
     6     7     8    2
     7     7     1    1
     8     1    33    1
     9    33    34    1
    10    34    35    1
    11    35    36    1
    12    36    37   ar
    13    37    38   ar
    14    38    39   ar
    15    39    40   ar
    16    40    41   ar
    17    40    42    1
    18    42    43    1
    19    43    44    1
    20    44    45    1
    21     1    11    1
    22    11    12   am
    23    12    13    2
    24    12    15    1
    25    15    16   ar
    26    16    17   ar
    27    17    18   ar
    28    18    19   ar
    29    19    20   ar
    30    20    21    1
    31    21    22    1
    32    22    23   ar
    33    23    24   ar
    34    24    25   ar
    35    25    29    1
    36    29    30    1
    37    29    31    1
    38    29    32    1
    39    25    26   ar
    40    26    27   ar
    41    27    28    1
    42     6     9    1
    43     9    10    1
    44    10     3    1
    45    41    36   ar
    46    20    15   ar
    47    27    22   ar
    48    45    39    1
    49    11    14    1
