@<TRIPOS>MOLECULE
*****
 30 34 0 0 0
SMALL
GASTEIGER

@<TRIPOS>ATOM
      1 C          63.9239   84.8958   14.6319 C.3     1  UNL1        0.1560
      2 C          63.5934   85.9207   15.6762 C.ar    1  UNL1        0.1834
      3 N          63.1820   85.6374   17.0905 N.ar    1  UNL1       -0.1298
      4 N          62.9506   86.9504   17.7778 N.ar    1  UNL1       -0.1272
      5 C          63.2192   88.0453   16.7883 C.ar    1  UNL1        0.1864
      6 C          63.1532   89.5394   16.9021 C.ar    1  UNL1        0.0422
      7 C          63.4846   90.3973   15.7170 C.ar    1  UNL1        0.0241
      8 C          63.8819   89.7609   14.4182 C.ar    1  UNL1        0.1015
      9 N          63.9478   88.2667   14.3043 N.ar    1  UNL1       -0.1626
     10 N          63.6164   87.4089   15.4894 N.ar    1  UNL1       -0.1935
     11 C          64.2133   90.6187   13.2331 C.ar    1  UNL1        0.0194
     12 C          65.3391   91.6066   13.3137 C.ar    1  UNL1        0.0016
     13 C          65.6704   92.4644   12.1286 C.ar    1  UNL1        0.0000
     14 C          64.8760   92.3343   10.8630 C.ar    1  UNL1        0.0000
     15 C          63.7502   91.3464   10.7824 C.ar    1  UNL1        0.0000
     16 C          63.4188   90.4886   11.9674 C.ar    1  UNL1        0.0016
     17 N          62.8505   84.3826   13.7185 N.pl3   1  UNL1       -0.3252
     18 H          61.9798   84.1085   14.0874 H       1  UNL1        0.1473
     19 C          61.0852   87.1549    9.4234 C.ar    1  UNL1        0.1593
     20 C          60.8322   87.2506   10.8988 C.ar    1  UNL1        0.1357
     21 N          61.5049   86.2946   11.8387 N.ar    1  UNL1       -0.2379
     22 C          62.4307   85.2429   11.3033 C.ar    1  UNL1        0.1122
     23 C          63.1035   84.2869   12.2432 C.ar    1  UNL1        0.0659
     24 C          64.0293   83.2352   11.7077 C.ar    1  UNL1        0.0365
     25 C          64.2824   83.1394   10.2323 C.ar    1  UNL1        0.1002
     26 N          63.6096   84.0954    9.2924 N.ar    1  UNL1       -0.2421
     27 C          62.6838   85.1472    9.8279 C.ar    1  UNL1        0.1032
     28 C          62.0110   86.1032    8.8880 C.ar    1  UNL1        0.0592
     29 C          59.2100   87.6725    7.7013 C.3     1  UNL1        0.2525
     30 O          60.4125   88.1109    8.4835 O.3     1  UNL1       -0.4698
@<TRIPOS>BOND
     1    29    30    1
     2    30    19    1
     3    19    20   ar
     4    20    21   ar
     5    21    22   ar
     6    22    23   ar
     7    23    17    1
     8    17     1    1
     9     1     2    1
    10     2     3   ar
    11     3     4   ar
    12     4     5   ar
    13     5     6   ar
    14     6     7   ar
    15     7     8   ar
    16     8    11    1
    17    11    12   ar
    18    12    13   ar
    19    13    14   ar
    20    14    15   ar
    21    15    16   ar
    22     8     9   ar
    23     9    10   ar
    24    23    24   ar
    25    24    25   ar
    26    25    26   ar
    27    26    27   ar
    28    27    28   ar
    29    28    19   ar
    30    27    22   ar
    31    10     2   ar
    32    10     5   ar
    33    16    11   ar
    34    17    18    1
@<TRIPOS>MOLECULE
*****
 30 34 0 0 0
SMALL
GASTEIGER

@<TRIPOS>ATOM
      1 C          64.2335   88.3391   14.6881 C.3     1  UNL1        0.1560
      2 C          64.1725   86.9011   14.2655 C.ar    1  UNL1        0.1834
      3 N          64.8312   85.7482   14.9633 N.ar    1  UNL1       -0.1298
      4 N          64.5078   84.4982   14.1999 N.ar    1  UNL1       -0.1272
      5 C          63.6491   84.8785   13.0302 C.ar    1  UNL1        0.1864
      6 C          63.0292   84.0644   11.9335 C.ar    1  UNL1        0.0422
      7 C          62.2020   84.7353   10.8772 C.ar    1  UNL1        0.0241
      8 C          61.9948   86.2204   10.9177 C.ar    1  UNL1        0.1015
      9 N          62.6148   87.0345   12.0145 N.ar    1  UNL1       -0.1626
     10 N          63.4419   86.3635   13.0707 N.ar    1  UNL1       -0.1935
     11 C          61.1677   86.8913    9.8615 C.ar    1  UNL1        0.0194
     12 C          60.9743   88.3785    9.8925 C.ar    1  UNL1        0.0016
     13 C          60.1471   89.0494    8.8362 C.ar    1  UNL1        0.0000
     14 C          59.5134   88.2332    7.7490 C.ar    1  UNL1        0.0000
     15 C          59.7068   86.7461    7.7180 C.ar    1  UNL1        0.0000
     16 C          60.5339   86.0751    8.7742 C.ar    1  UNL1        0.0016
     17 N          63.2997   89.3409   14.0763 N.pl3   1  UNL1       -0.3252
     18 H          62.3402   89.3173   14.2953 H       1  UNL1        0.1473
     19 C          66.9638   93.2948   14.5134 C.ar    1  UNL1        0.1593
     20 C          66.4356   92.2571   15.4590 C.ar    1  UNL1        0.1357
     21 N          65.3903   91.2850   14.9981 N.ar    1  UNL1       -0.2379
     22 C          64.8732   91.3507   13.5916 C.ar    1  UNL1        0.1122
     23 C          63.8279   90.3786   13.1307 C.ar    1  UNL1        0.0659
     24 C          63.3107   90.4443   11.7242 C.ar    1  UNL1        0.0365
     25 C          63.8389   91.4820   10.7786 C.ar    1  UNL1        0.1002
     26 N          64.8842   92.4541   11.2395 N.ar    1  UNL1       -0.2421
     27 C          65.4014   92.3884   12.6461 C.ar    1  UNL1        0.1032
     28 C          66.4467   93.3605   13.1070 C.ar    1  UNL1        0.0592
     29 C          69.0380   93.8412   15.9793 C.3     1  UNL1        0.2525
     30 O          68.0091   94.2669   14.9743 O.3     1  UNL1       -0.4698
@<TRIPOS>BOND
     1    29    30    1
     2    30    19    1
     3    19    20   ar
     4    20    21   ar
     5    21    22   ar
     6    22    23   ar
     7    23    17    1
     8    17     1    1
     9     1     2    1
    10     2     3   ar
    11     3     4   ar
    12     4     5   ar
    13     5     6   ar
    14     6     7   ar
    15     7     8   ar
    16     8    11    1
    17    11    12   ar
    18    12    13   ar
    19    13    14   ar
    20    14    15   ar
    21    15    16   ar
    22     8     9   ar
    23     9    10   ar
    24    23    24   ar
    25    24    25   ar
    26    25    26   ar
    27    26    27   ar
    28    27    28   ar
    29    28    19   ar
    30    27    22   ar
    31    10     2   ar
    32    10     5   ar
    33    16    11   ar
    34    17    18    1
@<TRIPOS>MOLECULE
*****
 30 34 0 0 0
SMALL
GASTEIGER

@<TRIPOS>ATOM
      1 C          62.5675   89.2797   11.6765 C.3     1  UNL1        0.1560
      2 C          63.3266   89.7253   12.8912 C.ar    1  UNL1        0.1834
      3 N          63.2058   89.1442   14.2687 N.ar    1  UNL1       -0.1298
      4 N          64.1444   89.8900   15.1703 N.ar    1  UNL1       -0.1272
      5 C          64.8453   90.9321   14.3499 C.ar    1  UNL1        0.1864
      6 C          65.8784   91.9604   14.7035 C.ar    1  UNL1        0.0422
      7 C          66.4061   92.8870   13.6486 C.ar    1  UNL1        0.0241
      8 C          65.9007   92.7852   12.2400 C.ar    1  UNL1        0.1015
      9 N          64.8676   91.7568   11.8864 N.ar    1  UNL1       -0.1626
     10 N          64.3399   90.8302   12.9413 N.ar    1  UNL1       -0.1935
     11 C          66.4284   93.7117   11.1850 C.ar    1  UNL1        0.0194
     12 C          67.2229   93.1651   10.0360 C.ar    1  UNL1        0.0016
     13 C          67.7506   94.0918    8.9810 C.ar    1  UNL1        0.0000
     14 C          67.4839   95.5648    9.0750 C.ar    1  UNL1        0.0000
     15 C          66.6894   96.1114   10.2240 C.ar    1  UNL1        0.0000
     16 C          66.1617   95.1848   11.2789 C.ar    1  UNL1        0.0016
     17 N          61.7784   88.0045   11.7114 N.pl3   1  UNL1       -0.3252
     18 H          60.9687   87.9417   12.2679 H       1  UNL1        0.1473
     19 C          63.2990   82.9618   12.9397 C.ar    1  UNL1        0.1593
     20 C          62.8545   84.1413   13.7529 C.ar    1  UNL1        0.1357
     21 N          62.4958   85.4290   13.0724 N.ar    1  UNL1       -0.2379
     22 C          62.5816   85.5373   11.5788 C.ar    1  UNL1        0.1122
     23 C          62.2228   86.8250   10.8983 C.ar    1  UNL1        0.0659
     24 C          62.3086   86.9332    9.4047 C.ar    1  UNL1        0.0365
     25 C          62.7531   85.7537    8.5915 C.ar    1  UNL1        0.1002
     26 N          63.1118   84.4660    9.2720 N.ar    1  UNL1       -0.2421
     27 C          63.0260   84.3578   10.7657 C.ar    1  UNL1        0.1032
     28 C          63.3848   83.0700   11.4462 C.ar    1  UNL1        0.0592
     29 C          62.6780   80.5384   13.6409 C.3     1  UNL1        0.2525
     30 O          63.6577   81.6741   13.6202 O.3     1  UNL1       -0.4698
@<TRIPOS>BOND
     1    29    30    1
     2    30    19    1
     3    19    20   ar
     4    20    21   ar
     5    21    22   ar
     6    22    23   ar
     7    23    17    1
     8    17     1    1
     9     1     2    1
    10     2     3   ar
    11     3     4   ar
    12     4     5   ar
    13     5     6   ar
    14     6     7   ar
    15     7     8   ar
    16     8    11    1
    17    11    12   ar
    18    12    13   ar
    19    13    14   ar
    20    14    15   ar
    21    15    16   ar
    22     8     9   ar
    23     9    10   ar
    24    23    24   ar
    25    24    25   ar
    26    25    26   ar
    27    26    27   ar
    28    27    28   ar
    29    28    19   ar
    30    27    22   ar
    31    10     2   ar
    32    10     5   ar
    33    16    11   ar
    34    17    18    1
@<TRIPOS>MOLECULE
*****
 30 34 0 0 0
SMALL
GASTEIGER

@<TRIPOS>ATOM
      1 C          61.7935   90.2333   12.2848 C.3     1  UNL1        0.1560
      2 C          61.1672   89.6728   11.0424 C.ar    1  UNL1        0.1834
      3 N          60.2659   90.4123   10.0986 N.ar    1  UNL1       -0.1298
      4 N          59.8740   89.4709    8.9985 N.ar    1  UNL1       -0.1272
      5 C          60.5331   88.1495    9.2624 C.ar    1  UNL1        0.1864
      6 C          60.5088   86.8488    8.5158 C.ar    1  UNL1        0.0422
      7 C          61.2837   85.6729    9.0322 C.ar    1  UNL1        0.0241
      8 C          62.0830   85.7977   10.2954 C.ar    1  UNL1        0.1015
      9 N          62.1073   87.0984   11.0421 N.ar    1  UNL1       -0.1626
     10 N          61.3324   88.2743   10.5256 N.ar    1  UNL1       -0.1935
     11 C          62.8579   84.6218   10.8119 C.ar    1  UNL1        0.0194
     12 C          62.8470   84.3016   12.2772 C.ar    1  UNL1        0.0016
     13 C          63.6219   83.1256   12.7937 C.ar    1  UNL1        0.0000
     14 C          64.4077   82.2700   11.8448 C.ar    1  UNL1        0.0000
     15 C          64.4186   82.5902   10.3795 C.ar    1  UNL1        0.0000
     16 C          63.6437   83.7661    9.8630 C.ar    1  UNL1        0.0016
     17 N          63.1939   89.8472   12.6586 N.pl3   1  UNL1       -0.3252
     18 H          63.5484   88.9669   12.3964 H       1  UNL1        0.1473
     19 C          66.4416   93.9409   11.2644 C.ar    1  UNL1        0.1593
     20 C          65.5813   92.9860   10.4911 C.ar    1  UNL1        0.1357
     21 N          64.7855   91.9397   11.2136 N.ar    1  UNL1       -0.2379
     22 C          64.8500   91.8484   12.7094 C.ar    1  UNL1        0.1122
     23 C          64.0542   90.8021   13.4319 C.ar    1  UNL1        0.0659
     24 C          64.1186   90.7108   14.9277 C.ar    1  UNL1        0.0365
     25 C          64.9789   91.6657   15.7011 C.ar    1  UNL1        0.1002
     26 N          65.7747   92.7120   14.9786 N.ar    1  UNL1       -0.2421
     27 C          65.7102   92.8033   13.4827 C.ar    1  UNL1        0.1032
     28 C          66.5060   93.8496   12.7602 C.ar    1  UNL1        0.0592
     29 C          67.6433   94.7680    9.1146 C.3     1  UNL1        0.2525
     30 O          67.2374   94.9872   10.5419 O.3     1  UNL1       -0.4698
@<TRIPOS>BOND
     1    29    30    1
     2    30    19    1
     3    19    20   ar
     4    20    21   ar
     5    21    22   ar
     6    22    23   ar
     7    23    17    1
     8    17     1    1
     9     1     2    1
    10     2     3   ar
    11     3     4   ar
    12     4     5   ar
    13     5     6   ar
    14     6     7   ar
    15     7     8   ar
    16     8    11    1
    17    11    12   ar
    18    12    13   ar
    19    13    14   ar
    20    14    15   ar
    21    15    16   ar
    22     8     9   ar
    23     9    10   ar
    24    23    24   ar
    25    24    25   ar
    26    25    26   ar
    27    26    27   ar
    28    27    28   ar
    29    28    19   ar
    30    27    22   ar
    31    10     2   ar
    32    10     5   ar
    33    16    11   ar
    34    17    18    1
@<TRIPOS>MOLECULE
*****
 30 34 0 0 0
SMALL
GASTEIGER

@<TRIPOS>ATOM
      1 C          60.8829   90.1032   12.3170 C.3     1  UNL1        0.1560
      2 C          60.6230   89.5110   10.9635 C.ar    1  UNL1        0.1834
      3 N          59.8932   90.1773    9.8350 N.ar    1  UNL1       -0.1298
      4 N          59.8665   89.2267    8.6750 N.ar    1  UNL1       -0.1272
      5 C          60.5797   87.9729    9.0865 C.ar    1  UNL1        0.1864
      6 C          60.8638   86.6940    8.3562 C.ar    1  UNL1        0.0422
      7 C          61.6155   85.5907    9.0402 C.ar    1  UNL1        0.0241
      8 C          62.0830   85.7664   10.4546 C.ar    1  UNL1        0.1015
      9 N          61.7989   87.0454   11.1849 N.ar    1  UNL1       -0.1626
     10 N          61.0472   88.1486   10.5009 N.ar    1  UNL1       -0.1935
     11 C          62.8347   84.6632   11.1386 C.ar    1  UNL1        0.0194
     12 C          62.8235   84.5638   12.6352 C.ar    1  UNL1        0.0016
     13 C          63.5753   83.4605   13.3192 C.ar    1  UNL1        0.0000
     14 C          64.3380   82.4567   12.5066 C.ar    1  UNL1        0.0000
     15 C          64.3491   82.5561   11.0099 C.ar    1  UNL1        0.0000
     16 C          63.5975   83.6593   10.3259 C.ar    1  UNL1        0.0016
     17 N          62.2479   90.0017   12.9305 N.pl3   1  UNL1       -0.3252
     18 H          62.4154   89.3560   13.6545 H       1  UNL1        0.1473
     19 C          66.2422   92.7088   15.3733 C.ar    1  UNL1        0.1593
     20 C          65.1323   91.8265   15.8630 C.ar    1  UNL1        0.1357
     21 N          64.1709   91.2182   14.8855 N.ar    1  UNL1       -0.2379
     22 C          64.3192   91.4922   13.4183 C.ar    1  UNL1        0.1122
     23 C          63.3577   90.8839   12.4407 C.ar    1  UNL1        0.0659
     24 C          63.5061   91.1579   10.9735 C.ar    1  UNL1        0.0365
     25 C          64.6160   92.0402   10.4837 C.ar    1  UNL1        0.1002
     26 N          65.5775   92.6484   11.4612 N.ar    1  UNL1       -0.2421
     27 C          65.4291   92.3744   12.9285 C.ar    1  UNL1        0.1032
     28 C          66.3905   92.9827   13.9061 C.ar    1  UNL1        0.0592
     29 C          68.5969   93.6631   15.9160 C.3     1  UNL1        0.2525
     30 O          67.2036   93.3170   16.3509 O.3     1  UNL1       -0.4698
@<TRIPOS>BOND
     1    29    30    1
     2    30    19    1
     3    19    20   ar
     4    20    21   ar
     5    21    22   ar
     6    22    23   ar
     7    23    17    1
     8    17     1    1
     9     1     2    1
    10     2     3   ar
    11     3     4   ar
    12     4     5   ar
    13     5     6   ar
    14     6     7   ar
    15     7     8   ar
    16     8    11    1
    17    11    12   ar
    18    12    13   ar
    19    13    14   ar
    20    14    15   ar
    21    15    16   ar
    22     8     9   ar
    23     9    10   ar
    24    23    24   ar
    25    24    25   ar
    26    25    26   ar
    27    26    27   ar
    28    27    28   ar
    29    28    19   ar
    30    27    22   ar
    31    10     2   ar
    32    10     5   ar
    33    16    11   ar
    34    17    18    1
@<TRIPOS>MOLECULE
*****
 30 34 0 0 0
SMALL
GASTEIGER

@<TRIPOS>ATOM
      1 C          62.8819   91.1929   10.0128 C.3     1  UNL1        0.1560
      2 C          63.9536   91.7957   10.8720 C.ar    1  UNL1        0.1834
      3 N          64.7803   93.0009   10.5346 N.ar    1  UNL1       -0.1298
      4 N          65.7242   93.2492   11.6736 N.ar    1  UNL1       -0.1272
      5 C          65.4809   92.1974   12.7151 C.ar    1  UNL1        0.1864
      6 C          66.1143   91.9415   14.0504 C.ar    1  UNL1        0.0422
      7 C          65.6535   90.7873   14.8904 C.ar    1  UNL1        0.0241
      8 C          64.5591   89.8890   14.3949 C.ar    1  UNL1        0.1015
      9 N          63.9257   90.1449   13.0596 N.ar    1  UNL1       -0.1626
     10 N          64.3865   91.2991   12.2196 N.ar    1  UNL1       -0.1935
     11 C          64.0983   88.7349   15.2349 C.ar    1  UNL1        0.0194
     12 C          64.4538   87.3318   14.8413 C.ar    1  UNL1        0.0016
     13 C          63.9928   86.1776   15.6813 C.ar    1  UNL1        0.0000
     14 C          63.1765   86.4266   16.9148 C.ar    1  UNL1        0.0000
     15 C          62.8210   87.8297   17.3084 C.ar    1  UNL1        0.0000
     16 C          63.2819   88.9838   16.4684 C.ar    1  UNL1        0.0016
     17 N          61.7731   90.4019   10.6412 N.pl3   1  UNL1       -0.3252
     18 H          61.4087   90.6732   11.5146 H       1  UNL1        0.1473
     19 C          62.3549   85.0681   11.3207 C.ar    1  UNL1        0.1593
     20 C          62.9083   86.2724   12.0229 C.ar    1  UNL1        0.1357
     21 N          62.5299   87.6489   11.5623 N.ar    1  UNL1       -0.2379
     22 C          61.5981   87.8210   10.3996 C.ar    1  UNL1        0.1122
     23 C          61.2197   89.1975    9.9390 C.ar    1  UNL1        0.0659
     24 C          60.2878   89.3696    8.7763 C.ar    1  UNL1        0.0365
     25 C          59.7343   88.1652    8.0741 C.ar    1  UNL1        0.1002
     26 N          60.1127   86.7887    8.5346 N.ar    1  UNL1       -0.2421
     27 C          61.0446   86.6166    9.6974 C.ar    1  UNL1        0.1032
     28 C          61.4230   85.2402   10.1580 C.ar    1  UNL1        0.0592
     29 C          63.8964   83.5047   12.7097 C.3     1  UNL1        0.2525
     30 O          62.7333   83.6916   11.7812 O.3     1  UNL1       -0.4698
@<TRIPOS>BOND
     1    29    30    1
     2    30    19    1
     3    19    20   ar
     4    20    21   ar
     5    21    22   ar
     6    22    23   ar
     7    23    17    1
     8    17     1    1
     9     1     2    1
    10     2     3   ar
    11     3     4   ar
    12     4     5   ar
    13     5     6   ar
    14     6     7   ar
    15     7     8   ar
    16     8    11    1
    17    11    12   ar
    18    12    13   ar
    19    13    14   ar
    20    14    15   ar
    21    15    16   ar
    22     8     9   ar
    23     9    10   ar
    24    23    24   ar
    25    24    25   ar
    26    25    26   ar
    27    26    27   ar
    28    27    28   ar
    29    28    19   ar
    30    27    22   ar
    31    10     2   ar
    32    10     5   ar
    33    16    11   ar
    34    17    18    1
@<TRIPOS>MOLECULE
*****
 30 34 0 0 0
SMALL
GASTEIGER

@<TRIPOS>ATOM
      1 C          61.7971   90.0481   12.4221 C.3     1  UNL1        0.1560
      2 C          62.8138   90.2718   13.5021 C.ar    1  UNL1        0.1834
      3 N          62.7094   89.8013   14.9225 N.ar    1  UNL1       -0.1298
      4 N          63.9445   90.2440   15.6495 N.ar    1  UNL1       -0.1272
      5 C          64.8123   90.9883   14.6784 C.ar    1  UNL1        0.1864
      6 C          66.1484   91.6524   14.8311 C.ar    1  UNL1        0.0422
      7 C          66.7859   92.3339   13.6566 C.ar    1  UNL1        0.0241
      8 C          66.0871   92.3511   12.3294 C.ar    1  UNL1        0.1015
      9 N          64.7509   91.6869   12.1768 N.ar    1  UNL1       -0.1626
     10 N          64.1135   91.0054   13.3512 N.ar    1  UNL1       -0.1935
     11 C          66.7245   93.0325   11.1550 C.ar    1  UNL1        0.0194
     12 C          66.3811   94.4578   10.8377 C.ar    1  UNL1        0.0016
     13 C          67.0185   95.1392    9.6632 C.ar    1  UNL1        0.0000
     14 C          67.9993   94.3954    8.8061 C.ar    1  UNL1        0.0000
     15 C          68.3427   92.9701    9.1234 C.ar    1  UNL1        0.0000
     16 C          67.7053   92.2887   10.2978 C.ar    1  UNL1        0.0016
     17 N          62.2401   89.6461   11.0466 N.pl3   1  UNL1       -0.3252
     18 H          62.7691   90.2694   10.4980 H       1  UNL1        0.1473
     19 C          63.1993   84.5779   12.6725 C.ar    1  UNL1        0.1593
     20 C          63.5621   85.9296   13.2122 C.ar    1  UNL1        0.1357
     21 N          63.1215   87.1684   12.4904 N.ar    1  UNL1       -0.2379
     22 C          62.3180   87.0556   11.2288 C.ar    1  UNL1        0.1122
     23 C          61.8773   88.2945   10.5069 C.ar    1  UNL1        0.0659
     24 C          61.0738   88.1817    9.2453 C.ar    1  UNL1        0.0365
     25 C          60.7109   86.8300    8.7056 C.ar    1  UNL1        0.1002
     26 N          61.1516   85.5911    9.4274 N.ar    1  UNL1       -0.2421
     27 C          61.9551   85.7040   10.6891 C.ar    1  UNL1        0.1032
     28 C          62.3958   84.4651   11.4109 C.ar    1  UNL1        0.0592
     29 C          64.2123   82.1860   12.6245 C.3     1  UNL1        0.2525
     30 O          63.6399   83.3391   13.3944 O.3     1  UNL1       -0.4698
@<TRIPOS>BOND
     1    29    30    1
     2    30    19    1
     3    19    20   ar
     4    20    21   ar
     5    21    22   ar
     6    22    23   ar
     7    23    17    1
     8    17     1    1
     9     1     2    1
    10     2     3   ar
    11     3     4   ar
    12     4     5   ar
    13     5     6   ar
    14     6     7   ar
    15     7     8   ar
    16     8    11    1
    17    11    12   ar
    18    12    13   ar
    19    13    14   ar
    20    14    15   ar
    21    15    16   ar
    22     8     9   ar
    23     9    10   ar
    24    23    24   ar
    25    24    25   ar
    26    25    26   ar
    27    26    27   ar
    28    27    28   ar
    29    28    19   ar
    30    27    22   ar
    31    10     2   ar
    32    10     5   ar
    33    16    11   ar
    34    17    18    1
@<TRIPOS>MOLECULE
*****
 30 34 0 0 0
SMALL
GASTEIGER

@<TRIPOS>ATOM
      1 C          62.3116   85.0489    9.1916 C.3     1  UNL1        0.1560
      2 C          61.3469   86.1846    9.0194 C.ar    1  UNL1        0.1834
      3 N          60.1060   86.1674    8.1770 N.ar    1  UNL1       -0.1298
      4 N          59.4460   87.5091    8.2963 N.ar    1  UNL1       -0.1272
      5 C          60.2791   88.3556    9.2125 C.ar    1  UNL1        0.1864
      6 C          60.1198   89.7660    9.6975 C.ar    1  UNL1        0.0422
      7 C          61.1352   90.3579   10.6295 C.ar    1  UNL1        0.0241
      8 C          62.3100   89.5393   11.0764 C.ar    1  UNL1        0.1015
      9 N          62.4694   88.1289   10.5913 N.ar    1  UNL1       -0.1626
     10 N          61.4539   87.5370    9.6594 N.ar    1  UNL1       -0.1935
     11 C          63.3255   90.1312   12.0084 C.ar    1  UNL1        0.0194
     12 C          64.0155   91.4137   11.6491 C.ar    1  UNL1        0.0016
     13 C          65.0310   92.0055   12.5812 C.ar    1  UNL1        0.0000
     14 C          65.3563   91.3149   13.8723 C.ar    1  UNL1        0.0000
     15 C          64.6663   90.0324   14.2315 C.ar    1  UNL1        0.0000
     16 C          63.6509   89.4406   13.2995 C.ar    1  UNL1        0.0016
     17 N          63.2643   85.0433   10.3502 N.pl3   1  UNL1       -0.3252
     18 H          63.9690   85.7280   10.4113 H       1  UNL1        0.1473
     19 C          63.4607   85.1467   15.7540 C.ar    1  UNL1        0.1593
     20 C          63.5816   86.1956   14.6886 C.ar    1  UNL1        0.1357
     21 N          63.4759   85.8115   13.2424 N.ar    1  UNL1       -0.2379
     22 C          63.2492   84.3785   12.8617 C.ar    1  UNL1        0.1122
     23 C          63.1434   83.9944   11.4156 C.ar    1  UNL1        0.0659
     24 C          62.9167   82.5613   11.0349 C.ar    1  UNL1        0.0365
     25 C          62.7958   81.5123   12.1003 C.ar    1  UNL1        0.1002
     26 N          62.9015   81.8965   13.5464 N.ar    1  UNL1       -0.2421
     27 C          63.1282   83.3296   13.9271 C.ar    1  UNL1        0.1032
     28 C          63.2340   83.7137   15.3732 C.ar    1  UNL1        0.0592
     29 C          62.6722   86.5969   17.7603 C.3     1  UNL1        0.2525
     30 O          63.5664   85.5309   17.2001 O.3     1  UNL1       -0.4698
@<TRIPOS>BOND
     1    29    30    1
     2    30    19    1
     3    19    20   ar
     4    20    21   ar
     5    21    22   ar
     6    22    23   ar
     7    23    17    1
     8    17     1    1
     9     1     2    1
    10     2     3   ar
    11     3     4   ar
    12     4     5   ar
    13     5     6   ar
    14     6     7   ar
    15     7     8   ar
    16     8    11    1
    17    11    12   ar
    18    12    13   ar
    19    13    14   ar
    20    14    15   ar
    21    15    16   ar
    22     8     9   ar
    23     9    10   ar
    24    23    24   ar
    25    24    25   ar
    26    25    26   ar
    27    26    27   ar
    28    27    28   ar
    29    28    19   ar
    30    27    22   ar
    31    10     2   ar
    32    10     5   ar
    33    16    11   ar
    34    17    18    1
@<TRIPOS>MOLECULE
*****
 30 34 0 0 0
SMALL
GASTEIGER

@<TRIPOS>ATOM
      1 C          60.8834   89.7295   11.8964 C.3     1  UNL1        0.1560
      2 C          60.7803   88.4574   11.1081 C.ar    1  UNL1        0.1834
      3 N          61.0742   87.0778   11.6183 N.ar    1  UNL1       -0.1298
      4 N          60.8407   86.1094   10.4968 N.ar    1  UNL1       -0.1272
      5 C          60.4026   86.8905    9.2934 C.ar    1  UNL1        0.1864
      6 C          60.0328   86.4679    7.9026 C.ar    1  UNL1        0.0422
      7 C          59.6257   87.4965    6.8894 C.ar    1  UNL1        0.0241
      8 C          59.5884   88.9476    7.2673 C.ar    1  UNL1        0.1015
      9 N          59.9582   89.3702    8.6582 N.ar    1  UNL1       -0.1626
     10 N          60.3653   88.3417    9.6713 N.ar    1  UNL1       -0.1935
     11 C          59.1813   89.9762    6.2542 C.ar    1  UNL1        0.0194
     12 C          60.2275   90.7172    5.4757 C.ar    1  UNL1        0.0016
     13 C          59.8203   91.7458    4.4626 C.ar    1  UNL1        0.0000
     14 C          58.3670   92.0333    4.2281 C.ar    1  UNL1        0.0000
     15 C          57.3207   91.2923    5.0067 C.ar    1  UNL1        0.0000
     16 C          57.7279   90.2637    6.0197 C.ar    1  UNL1        0.0016
     17 N          62.0733   89.9717   12.7770 N.pl3   1  UNL1       -0.3252
     18 H          62.1151   89.5627   13.6715 H       1  UNL1        0.1473
     19 C          66.1471   92.5410   15.2372 C.ar    1  UNL1        0.1593
     20 C          65.0209   91.6756   15.7195 C.ar    1  UNL1        0.1357
     21 N          64.0384   91.1076   14.7387 N.ar    1  UNL1       -0.2379
     22 C          64.1821   91.4051   13.2755 C.ar    1  UNL1        0.1122
     23 C          63.1995   90.8371   12.2947 C.ar    1  UNL1        0.0659
     24 C          63.3432   91.1346   10.8315 C.ar    1  UNL1        0.0365
     25 C          64.4695   92.0001   10.3492 C.ar    1  UNL1        0.1002
     26 N          65.4520   92.5680   11.3300 N.ar    1  UNL1       -0.2421
     27 C          65.3083   92.2705   12.7932 C.ar    1  UNL1        0.1032
     28 C          66.2908   92.8385   13.7741 C.ar    1  UNL1        0.0592
     29 C          68.4999   93.5115   15.7594 C.3     1  UNL1        0.2525
     30 O          67.1297   93.1089   16.2181 O.3     1  UNL1       -0.4698
@<TRIPOS>BOND
     1    29    30    1
     2    30    19    1
     3    19    20   ar
     4    20    21   ar
     5    21    22   ar
     6    22    23   ar
     7    23    17    1
     8    17     1    1
     9     1     2    1
    10     2     3   ar
    11     3     4   ar
    12     4     5   ar
    13     5     6   ar
    14     6     7   ar
    15     7     8   ar
    16     8    11    1
    17    11    12   ar
    18    12    13   ar
    19    13    14   ar
    20    14    15   ar
    21    15    16   ar
    22     8     9   ar
    23     9    10   ar
    24    23    24   ar
    25    24    25   ar
    26    25    26   ar
    27    26    27   ar
    28    27    28   ar
    29    28    19   ar
    30    27    22   ar
    31    10     2   ar
    32    10     5   ar
    33    16    11   ar
    34    17    18    1
