@<TRIPOS>MOLECULE
*****
 35 37 0 0 0
SMALL
GASTEIGER

@<TRIPOS>ATOM
      1 C          64.0960   88.4933   15.2927 C.ar    1  UNL1        0.0495
      2 C          64.2955   87.6262   14.0851 C.ar    1  UNL1        0.0455
      3 C          63.9159   86.1758   14.1322 C.ar    1  UNL1        0.1623
      4 F          64.1155   85.3087   12.9246 F       1  UNL1       -0.2026
      5 C          63.3367   85.5926   15.3869 C.ar    1  UNL1        0.1798
      6 C          63.1371   86.4597   16.5945 C.ar    1  UNL1        0.1623
      7 F          62.5579   85.8764   17.8492 F       1  UNL1       -0.2026
      8 C          63.5168   87.9101   16.5474 C.ar    1  UNL1        0.0455
      9 S          62.9570   84.1421   15.4340 S.O2    1  UNL1        0.0791
     10 O          64.4053   83.7664   15.5403 O.2     1  UNL1       -0.1498
     11 O          61.5088   84.5178   15.3277 O.2     1  UNL1       -0.1498
     12 N          62.5774   82.6918   15.4811 N.pl3   1  UNL1       -0.1983
     13 H          62.3054   82.2816   16.3338 H       1  UNL1        0.1753
     14 C          62.6120   81.8663   14.2292 C.ar    1  UNL1        0.1542
     15 C          62.6942   82.3937   12.8273 C.ar    1  UNL1        0.0725
     16 S          62.7036   81.2219   11.8910 S.2     1  UNL1       -0.0625
     17 C          62.6272   79.9703   12.7141 C.ar    1  UNL1        0.1360
     18 N          62.5706   80.3686   14.1591 N.ar    1  UNL1       -0.2203
     19 N          64.4756   89.9438   15.2455 N.pl3   1  UNL1       -0.3289
     20 H          65.2901   90.2545   15.7031 H       1  UNL1        0.1471
     21 C          63.6144   90.9207   14.5013 C.3     1  UNL1        0.1163
     22 C          63.2263   90.7713   11.9367 C.ar    1  UNL1       -0.0063
     23 C          63.5923   91.1825   10.5414 C.ar    1  UNL1       -0.0030
     24 C          64.7123   92.1544   10.3153 C.ar    1  UNL1        0.0020
     25 C          65.4663   92.7150   11.4846 C.ar    1  UNL1        0.0293
     26 C          65.1003   92.3038   12.8798 C.ar    1  UNL1        0.1375
     27 F          65.8543   92.8644   14.0492 F       1  UNL1       -0.2045
     28 C          63.9803   91.3319   13.1059 C.ar    1  UNL1        0.0222
     29 C          62.1063   89.7994   12.1628 C.3     1  UNL1        0.0989
     30 C          59.9002   90.4450   10.9521 C.3     1  UNL1        0.0898
     31 N          61.0983   89.5517   11.0800 N.3     1  UNL1       -0.2703
     32 C          61.2883   88.4105   10.1252 C.3     1  UNL1        0.0458
     33 C          60.5503   89.1740    9.0658 C.3     1  UNL1        0.0160
     34 C          62.0263   87.6470   11.1846 C.3     1  UNL1        0.0160
     35 C          61.4784   87.2694    9.1704 C.3     1  UNL1        0.0160
@<TRIPOS>BOND
     1    30    31    1
     2    31    29    1
     3    29    22    1
     4    22    23   ar
     5    23    24   ar
     6    24    25   ar
     7    25    26   ar
     8    26    27    1
     9    26    28   ar
    10    28    21    1
    11    21    19    1
    12    19     1    1
    13     1     2   ar
    14     2     3   ar
    15     3     4    1
    16     3     5   ar
    17     5     9    1
    18     9    10    2
    19     9    11    2
    20     9    12    1
    21    12    14    1
    22    14    15   ar
    23    15    16   ar
    24    16    17   ar
    25    17    18   ar
    26     5     6   ar
    27     6     7    1
    28     6     8   ar
    29    31    32    1
    30    32    33    1
    31    32    34    1
    32    32    35    1
    33    28    22   ar
    34     8     1   ar
    35    18    14   ar
    36    19    20    1
    37    12    13    1
@<TRIPOS>MOLECULE
*****
 35 37 0 0 0
SMALL
GASTEIGER

@<TRIPOS>ATOM
      1 C          62.3192   88.5259   11.1047 C.ar    1  UNL1        0.0495
      2 C          63.0803   88.4173   12.3928 C.ar    1  UNL1        0.0455
      3 C          63.9256   89.5636   12.8633 C.ar    1  UNL1        0.1623
      4 F          64.6867   89.4550   14.1513 F       1  UNL1       -0.2026
      5 C          64.0100   90.8183   12.0458 C.ar    1  UNL1        0.1798
      6 C          63.2490   90.9269   10.7577 C.ar    1  UNL1        0.1623
      7 F          63.3334   92.1817    9.9402 F       1  UNL1       -0.2026
      8 C          62.4036   89.7806   10.2872 C.ar    1  UNL1        0.0455
      9 S          64.8554   91.9647   12.5163 S.O2    1  UNL1        0.0791
     10 O          64.0876   92.0023   13.8043 O.2     1  UNL1       -0.1498
     11 O          65.6232   91.9270   11.2283 O.2     1  UNL1       -0.1498
     12 N          65.7008   93.1109   12.9867 N.pl3   1  UNL1       -0.1983
     13 H          65.5345   94.0186   12.6435 H       1  UNL1        0.1753
     14 C          66.7996   92.8743   13.9800 C.ar    1  UNL1        0.1542
     15 C          66.6942   93.0389   15.4673 C.ar    1  UNL1        0.0725
     16 S          68.0261   92.6979   16.0670 S.2     1  UNL1       -0.0625
     17 C          68.9547   92.3226   14.9504 C.ar    1  UNL1        0.1360
     18 N          68.1967   92.4316   13.6606 N.ar    1  UNL1       -0.2203
     19 N          61.4738   87.3795   10.6342 N.pl3   1  UNL1       -0.3289
     20 H          60.9307   87.4709    9.8181 H       1  UNL1        0.1471
     21 C          61.4559   86.0941   11.4070 C.3     1  UNL1        0.1163
     22 C          62.9486   84.1149   12.1847 C.ar    1  UNL1       -0.0063
     23 C          63.9444   83.0377   11.8716 C.ar    1  UNL1       -0.0030
     24 C          64.4433   82.8624   10.4679 C.ar    1  UNL1        0.0020
     25 C          63.9464   83.7643    9.3772 C.ar    1  UNL1        0.0293
     26 C          62.9506   84.8415    9.6903 C.ar    1  UNL1        0.1375
     27 F          62.4537   85.7435    8.5996 F       1  UNL1       -0.2045
     28 C          62.4517   85.0168   11.0940 C.ar    1  UNL1        0.0222
     29 C          62.4498   84.2902   13.5884 C.3     1  UNL1        0.0989
     30 C          64.3311   83.2201   15.0256 C.3     1  UNL1        0.0898
     31 N          63.4243   84.3766   14.7254 N.3     1  UNL1       -0.2703
     32 C          63.4920   85.6197   15.5623 C.3     1  UNL1        0.0458
     33 C          62.2895   85.1650   16.3350 C.3     1  UNL1        0.0160
     34 C          64.6945   86.0744   14.7895 C.3     1  UNL1        0.0160
     35 C          63.5598   86.8627   16.3991 C.3     1  UNL1        0.0160
@<TRIPOS>BOND
     1    30    31    1
     2    31    29    1
     3    29    22    1
     4    22    23   ar
     5    23    24   ar
     6    24    25   ar
     7    25    26   ar
     8    26    27    1
     9    26    28   ar
    10    28    21    1
    11    21    19    1
    12    19     1    1
    13     1     2   ar
    14     2     3   ar
    15     3     4    1
    16     3     5   ar
    17     5     9    1
    18     9    10    2
    19     9    11    2
    20     9    12    1
    21    12    14    1
    22    14    15   ar
    23    15    16   ar
    24    16    17   ar
    25    17    18   ar
    26     5     6   ar
    27     6     7    1
    28     6     8   ar
    29    31    32    1
    30    32    33    1
    31    32    34    1
    32    32    35    1
    33    28    22   ar
    34     8     1   ar
    35    18    14   ar
    36    19    20    1
    37    12    13    1
@<TRIPOS>MOLECULE
*****
 35 37 0 0 0
SMALL
GASTEIGER

@<TRIPOS>ATOM
      1 C          62.2150   88.5387   11.0421 C.ar    1  UNL1        0.0495
      2 C          62.2721   89.7760   10.1961 C.ar    1  UNL1        0.0455
      3 C          63.1402   90.9274   10.6088 C.ar    1  UNL1        0.1623
      4 F          63.1972   92.1647    9.7627 F       1  UNL1       -0.2026
      5 C          63.9514   90.8416   11.8676 C.ar    1  UNL1        0.1798
      6 C          63.8944   89.6043   12.7136 C.ar    1  UNL1        0.1623
      7 F          64.7056   89.5186   13.9725 F       1  UNL1       -0.2026
      8 C          63.0262   88.4529   12.3009 C.ar    1  UNL1        0.0455
      9 S          64.8196   91.9931   12.2803 S.O2    1  UNL1        0.0791
     10 O          64.1634   92.0045   13.6291 O.2     1  UNL1       -0.1498
     11 O          65.4758   91.9818   10.9316 O.2     1  UNL1       -0.1498
     12 N          65.6878   93.1446   12.6930 N.pl3   1  UNL1       -0.1983
     13 H          65.5271   94.0410   12.3192 H       1  UNL1        0.1753
     14 C          66.8010   92.9302   13.6753 C.ar    1  UNL1        0.1542
     15 C          66.8744   93.4970   15.0621 C.ar    1  UNL1        0.0725
     16 S          68.1550   93.0285   15.6872 S.2     1  UNL1       -0.0625
     17 C          68.8729   92.1721   14.6867 C.ar    1  UNL1        0.1360
     18 N          68.0361   92.1113   13.4433 N.ar    1  UNL1       -0.2203
     19 N          61.3468   87.3872   10.6294 N.pl3   1  UNL1       -0.3289
     20 H          60.7550   87.4725    9.8472 H       1  UNL1        0.1471
     21 C          61.3802   86.1058   11.4083 C.3     1  UNL1        0.1163
     22 C          62.9432   84.1771   12.1749 C.ar    1  UNL1       -0.0063
     23 C          63.9689   83.1309   11.8538 C.ar    1  UNL1       -0.0030
     24 C          64.4575   82.9669   10.4451 C.ar    1  UNL1        0.0020
     25 C          63.9203   83.8492    9.3575 C.ar    1  UNL1        0.0293
     26 C          62.8946   84.8954    9.6786 C.ar    1  UNL1        0.1375
     27 F          62.3573   85.7778    8.5909 F       1  UNL1       -0.2045
     28 C          62.4060   85.0594   11.0873 C.ar    1  UNL1        0.0222
     29 C          62.4546   84.3411   13.5836 C.3     1  UNL1        0.0989
     30 C          64.3657   83.2693   14.9796 C.3     1  UNL1        0.0898
     31 N          63.4374   84.4172   14.7142 N.3     1  UNL1       -0.2703
     32 C          63.4920   85.6413   15.5795 C.3     1  UNL1        0.0458
     33 C          62.3195   85.1368   16.3673 C.3     1  UNL1        0.0160
     34 C          64.6644   86.1459   14.7917 C.3     1  UNL1        0.0160
     35 C          63.5465   86.8654   16.4447 C.3     1  UNL1        0.0160
@<TRIPOS>BOND
     1    30    31    1
     2    31    29    1
     3    29    22    1
     4    22    23   ar
     5    23    24   ar
     6    24    25   ar
     7    25    26   ar
     8    26    27    1
     9    26    28   ar
    10    28    21    1
    11    21    19    1
    12    19     1    1
    13     1     2   ar
    14     2     3   ar
    15     3     4    1
    16     3     5   ar
    17     5     9    1
    18     9    10    2
    19     9    11    2
    20     9    12    1
    21    12    14    1
    22    14    15   ar
    23    15    16   ar
    24    16    17   ar
    25    17    18   ar
    26     5     6   ar
    27     6     7    1
    28     6     8   ar
    29    31    32    1
    30    32    33    1
    31    32    34    1
    32    32    35    1
    33    28    22   ar
    34     8     1   ar
    35    18    14   ar
    36    19    20    1
    37    12    13    1
@<TRIPOS>MOLECULE
*****
 35 37 0 0 0
SMALL
GASTEIGER

@<TRIPOS>ATOM
      1 C          62.1439   89.3463   11.6372 C.ar    1  UNL1        0.0495
      2 C          63.0960   89.2600   12.7931 C.ar    1  UNL1        0.0455
      3 C          64.2046   90.2614   12.9279 C.ar    1  UNL1        0.1623
      4 F          65.1567   90.1752   14.0838 F       1  UNL1       -0.2026
      5 C          64.3610   91.3491   11.9070 C.ar    1  UNL1        0.1798
      6 C          63.4089   91.4354   10.7511 C.ar    1  UNL1        0.1623
      7 F          63.5653   92.5231    9.7301 F       1  UNL1       -0.2026
      8 C          62.3003   90.4339   10.6162 C.ar    1  UNL1        0.0455
      9 S          65.4696   92.3506   12.0418 S.O2    1  UNL1        0.0791
     10 O          65.9666   91.9846   10.6748 O.2     1  UNL1       -0.1498
     11 O          64.9725   92.7166   13.4089 O.2     1  UNL1       -0.1498
     12 N          66.5781   93.3521   12.1767 N.pl3   1  UNL1       -0.1983
     13 H          67.2066   93.2919   12.9321 H       1  UNL1        0.1753
     14 C          66.7290   94.4452   11.1608 C.ar    1  UNL1        0.1542
     15 C          65.9869   95.7488   11.1514 C.ar    1  UNL1        0.0725
     16 S          66.4478   96.5360    9.9606 S.2     1  UNL1       -0.0625
     17 C          67.4747   95.7189    9.2340 C.ar    1  UNL1        0.1360
     18 N          67.6484   94.4268    9.9758 N.ar    1  UNL1       -0.2203
     19 N          61.0353   88.3447   11.5023 N.pl3   1  UNL1       -0.3289
     20 H          60.1318   88.6418   11.2480 H       1  UNL1        0.1471
     21 C          61.3033   86.8907   11.7549 C.3     1  UNL1        0.1163
     22 C          62.7757   84.8473   11.1172 C.ar    1  UNL1       -0.0063
     23 C          63.4692   84.0205   10.0753 C.ar    1  UNL1       -0.0030
     24 C          63.3839   84.4103    8.6294 C.ar    1  UNL1        0.0020
     25 C          62.6051   85.6269    8.2253 C.ar    1  UNL1        0.0293
     26 C          61.9116   86.4537    9.2671 C.ar    1  UNL1        0.1375
     27 F          61.1328   87.6703    8.8630 F       1  UNL1       -0.2045
     28 C          61.9969   86.0638   10.7131 C.ar    1  UNL1        0.0222
     29 C          62.8609   84.4574   12.5631 C.3     1  UNL1        0.0989
     30 C          64.7271   82.6575   12.7284 C.3     1  UNL1        0.0898
     31 N          63.3024   83.0750   12.9424 N.3     1  UNL1       -0.2703
     32 C          62.3191   82.1100   13.5358 C.3     1  UNL1        0.0458
     33 C          62.4729   81.2178   12.3399 C.3     1  UNL1        0.0160
     34 C          62.1653   83.0022   14.7317 C.3     1  UNL1        0.0160
     35 C          61.3359   81.1451   14.1292 C.3     1  UNL1        0.0160
@<TRIPOS>BOND
     1    30    31    1
     2    31    29    1
     3    29    22    1
     4    22    23   ar
     5    23    24   ar
     6    24    25   ar
     7    25    26   ar
     8    26    27    1
     9    26    28   ar
    10    28    21    1
    11    21    19    1
    12    19     1    1
    13     1     2   ar
    14     2     3   ar
    15     3     4    1
    16     3     5   ar
    17     5     9    1
    18     9    10    2
    19     9    11    2
    20     9    12    1
    21    12    14    1
    22    14    15   ar
    23    15    16   ar
    24    16    17   ar
    25    17    18   ar
    26     5     6   ar
    27     6     7    1
    28     6     8   ar
    29    31    32    1
    30    32    33    1
    31    32    34    1
    32    32    35    1
    33    28    22   ar
    34     8     1   ar
    35    18    14   ar
    36    19    20    1
    37    12    13    1
@<TRIPOS>MOLECULE
*****
 35 37 0 0 0
SMALL
GASTEIGER

@<TRIPOS>ATOM
      1 C          62.2280   88.9916   11.4658 C.ar    1  UNL1        0.0495
      2 C          62.3058   90.1232   10.4842 C.ar    1  UNL1        0.0455
      3 C          63.3115   91.2186   10.6805 C.ar    1  UNL1        0.1623
      4 F          63.3893   92.3501    9.6989 F       1  UNL1       -0.2026
      5 C          64.2394   91.1824   11.8585 C.ar    1  UNL1        0.1798
      6 C          64.1617   90.0509   12.8401 C.ar    1  UNL1        0.1623
      7 F          65.0897   90.0148   14.0181 F       1  UNL1       -0.2026
      8 C          63.1559   88.9555   12.6438 C.ar    1  UNL1        0.0455
      9 S          65.2452   92.2779   12.0548 S.O2    1  UNL1        0.0791
     10 O          64.7568   92.4746   13.4593 O.2     1  UNL1       -0.1498
     11 O          65.7336   92.0811   10.6503 O.2     1  UNL1       -0.1498
     12 N          66.2510   93.3733   12.2511 N.pl3   1  UNL1       -0.1983
     13 H          66.7312   93.4530   13.1068 H       1  UNL1        0.1753
     14 C          66.5251   94.3471   11.1437 C.ar    1  UNL1        0.1542
     15 C          65.6984   95.5518   10.8043 C.ar    1  UNL1        0.0725
     16 S          66.3363   96.2366    9.6320 S.2     1  UNL1       -0.0625
     17 C          67.5573   95.4550    9.2469 C.ar    1  UNL1        0.1360
     18 N          67.6739   94.2873   10.1811 N.ar    1  UNL1       -0.2203
     19 N          61.2222   87.8962   11.2695 N.pl3   1  UNL1       -0.3289
     20 H          60.4139   88.0606   10.7321 H       1  UNL1        0.1471
     21 C          61.4480   86.5503   11.8919 C.3     1  UNL1        0.1163
     22 C          62.9014   84.3976   11.9518 C.ar    1  UNL1       -0.0063
     23 C          63.7353   83.3731   11.2413 C.ar    1  UNL1       -0.0030
     24 C          63.9499   83.4767    9.7603 C.ar    1  UNL1        0.0020
     25 C          63.3305   84.6049    8.9899 C.ar    1  UNL1        0.0293
     26 C          62.4966   85.6294    9.7004 C.ar    1  UNL1        0.1375
     27 F          61.8771   86.7576    8.9300 F       1  UNL1       -0.2045
     28 C          62.2820   85.5257   11.1814 C.ar    1  UNL1        0.0222
     29 C          62.6869   84.2939   13.4327 C.3     1  UNL1        0.0989
     30 C          65.1960   84.2764   14.1063 C.3     1  UNL1        0.0898
     31 N          63.7807   84.6920   14.3787 N.3     1  UNL1       -0.2703
     32 C          63.4593   85.5057   15.5972 C.3     1  UNL1        0.0458
     33 C          64.5105   86.5027   15.2088 C.3     1  UNL1        0.0160
     34 C          62.4082   84.5087   15.9857 C.3     1  UNL1        0.0160
     35 C          63.1379   86.3193   16.8157 C.3     1  UNL1        0.0160
@<TRIPOS>BOND
     1    30    31    1
     2    31    29    1
     3    29    22    1
     4    22    23   ar
     5    23    24   ar
     6    24    25   ar
     7    25    26   ar
     8    26    27    1
     9    26    28   ar
    10    28    21    1
    11    21    19    1
    12    19     1    1
    13     1     2   ar
    14     2     3   ar
    15     3     4    1
    16     3     5   ar
    17     5     9    1
    18     9    10    2
    19     9    11    2
    20     9    12    1
    21    12    14    1
    22    14    15   ar
    23    15    16   ar
    24    16    17   ar
    25    17    18   ar
    26     5     6   ar
    27     6     7    1
    28     6     8   ar
    29    31    32    1
    30    32    33    1
    31    32    34    1
    32    32    35    1
    33    28    22   ar
    34     8     1   ar
    35    18    14   ar
    36    19    20    1
    37    12    13    1
@<TRIPOS>MOLECULE
*****
 35 37 0 0 0
SMALL
GASTEIGER

@<TRIPOS>ATOM
      1 C          63.5297   89.1756   13.9816 C.ar    1  UNL1        0.0495
      2 C          63.4762   88.1963   12.8467 C.ar    1  UNL1        0.0455
      3 C          63.5781   86.7250   13.1202 C.ar    1  UNL1        0.1623
      4 F          63.5245   85.7456   11.9853 F       1  UNL1       -0.2026
      5 C          63.7334   86.2330   14.5286 C.ar    1  UNL1        0.1798
      6 C          63.7870   87.2123   15.6636 C.ar    1  UNL1        0.1623
      7 F          63.9424   86.7203   17.0721 F       1  UNL1       -0.2026
      8 C          63.6851   88.6836   15.3900 C.ar    1  UNL1        0.0455
      9 S          63.8353   84.7616   14.8022 S.O2    1  UNL1        0.0791
     10 O          65.3232   84.8318   14.6257 O.2     1  UNL1       -0.1498
     11 O          62.3474   84.6915   14.9787 O.2     1  UNL1       -0.1498
     12 N          63.9371   83.2903   15.0758 N.pl3   1  UNL1       -0.1983
     13 H          64.3274   82.9728   15.9220 H       1  UNL1        0.1753
     14 C          63.4443   82.3027   14.0600 C.ar    1  UNL1        0.1542
     15 C          63.6248   82.4016   12.5742 C.ar    1  UNL1        0.0725
     16 S          62.9765   81.2028   11.9476 S.2     1  UNL1       -0.0625
     17 C          62.3952   80.3630   13.0462 C.ar    1  UNL1        0.1360
     18 N          62.6843   81.0428   14.3517 N.ar    1  UNL1       -0.2203
     19 N          63.4279   90.6470   13.7080 N.pl3   1  UNL1       -0.3289
     20 H          62.5872   91.1249   13.8926 H       1  UNL1        0.1471
     21 C          64.6068   91.3900   13.1532 C.3     1  UNL1        0.1163
     22 C          67.0184   92.2819   13.5259 C.ar    1  UNL1       -0.0063
     23 C          68.0894   92.7849   14.4478 C.ar    1  UNL1       -0.0030
     24 C          67.8198   92.8992   15.9190 C.ar    1  UNL1        0.0020
     25 C          66.4792   92.5105   16.4682 C.ar    1  UNL1        0.0293
     26 C          65.4082   92.0074   15.5463 C.ar    1  UNL1        0.1375
     27 F          64.0676   91.6187   16.0955 F       1  UNL1       -0.2045
     28 C          65.6779   91.8931   14.0751 C.ar    1  UNL1        0.0222
     29 C          67.2881   92.1675   12.0548 C.3     1  UNL1        0.0989
     30 C          66.2650   94.5191   11.6385 C.3     1  UNL1        0.0898
     31 N          67.0763   93.3520   11.1592 N.3     1  UNL1       -0.2703
     32 C          67.6758   93.3695    9.7843 C.3     1  UNL1        0.0458
     33 C          67.2854   94.8097    9.6322 C.3     1  UNL1        0.0160
     34 C          68.0663   91.9292    9.9363 C.3     1  UNL1        0.0160
     35 C          68.2753   93.3868    8.4094 C.3     1  UNL1        0.0160
@<TRIPOS>BOND
     1    30    31    1
     2    31    29    1
     3    29    22    1
     4    22    23   ar
     5    23    24   ar
     6    24    25   ar
     7    25    26   ar
     8    26    27    1
     9    26    28   ar
    10    28    21    1
    11    21    19    1
    12    19     1    1
    13     1     2   ar
    14     2     3   ar
    15     3     4    1
    16     3     5   ar
    17     5     9    1
    18     9    10    2
    19     9    11    2
    20     9    12    1
    21    12    14    1
    22    14    15   ar
    23    15    16   ar
    24    16    17   ar
    25    17    18   ar
    26     5     6   ar
    27     6     7    1
    28     6     8   ar
    29    31    32    1
    30    32    33    1
    31    32    34    1
    32    32    35    1
    33    28    22   ar
    34     8     1   ar
    35    18    14   ar
    36    19    20    1
    37    12    13    1
@<TRIPOS>MOLECULE
*****
 35 37 0 0 0
SMALL
GASTEIGER

@<TRIPOS>ATOM
      1 C          62.0441   89.3674   11.4814 C.ar    1  UNL1        0.0495
      2 C          62.2583   90.4635   10.4800 C.ar    1  UNL1        0.0455
      3 C          63.3765   91.4450   10.6701 C.ar    1  UNL1        0.1623
      4 F          63.5907   92.5410    9.6687 F       1  UNL1       -0.2026
      5 C          64.2805   91.3305   11.8615 C.ar    1  UNL1        0.1798
      6 C          64.0662   90.2344   12.8629 C.ar    1  UNL1        0.1623
      7 F          64.9703   90.1199   14.0545 F       1  UNL1       -0.2026
      8 C          62.9480   89.2529   12.6728 C.ar    1  UNL1        0.0455
      9 S          65.3987   92.3120   12.0517 S.O2    1  UNL1        0.0791
     10 O          64.9114   92.5982   13.4411 O.2     1  UNL1       -0.1498
     11 O          65.8861   92.0258   10.6623 O.2     1  UNL1       -0.1498
     12 N          66.5170   93.2935   12.2418 N.pl3   1  UNL1       -0.1983
     13 H          67.2259   93.1106   12.8999 H       1  UNL1        0.1753
     14 C          66.5551   94.5537   11.4291 C.ar    1  UNL1        0.1542
     15 C          67.1700   94.7079   10.0696 C.ar    1  UNL1        0.0725
     16 S          66.9799   96.1305    9.6335 S.2     1  UNL1       -0.0625
     17 C          66.2475   96.8555   10.7234 C.ar    1  UNL1        0.1360
     18 N          65.9849   95.8810   11.8331 N.ar    1  UNL1       -0.2203
     19 N          60.9258   88.3858   11.2912 N.pl3   1  UNL1       -0.3289
     20 H          60.0613   88.6884   10.9303 H       1  UNL1        0.1471
     21 C          61.1247   86.9433   11.6510 C.3     1  UNL1        0.1163
     22 C          62.6203   84.8456   11.3151 C.ar    1  UNL1       -0.0063
     23 C          63.4211   83.9518   10.4153 C.ar    1  UNL1       -0.0030
     24 C          63.5273   84.2618    8.9515 C.ar    1  UNL1        0.0020
     25 C          62.8326   85.4657    8.3876 C.ar    1  UNL1        0.0293
     26 C          62.0318   86.3595    9.2874 C.ar    1  UNL1        0.1375
     27 F          61.3370   87.5635    8.7235 F       1  UNL1       -0.2045
     28 C          61.9256   86.0494   10.7512 C.ar    1  UNL1        0.0222
     29 C          62.5141   84.5355   12.7788 C.3     1  UNL1        0.0989
     30 C          64.8073   84.1748   13.9455 C.3     1  UNL1        0.0898
     31 N          63.5128   83.6227   13.4265 N.3     1  UNL1       -0.2703
     32 C          63.2170   82.1578   13.5551 C.3     1  UNL1        0.0458
     33 C          61.9950   82.4756   14.3648 C.3     1  UNL1        0.0160
     34 C          64.4390   81.8400   12.7454 C.3     1  UNL1        0.0160
     35 C          62.9213   80.6929   13.6837 C.3     1  UNL1        0.0160
@<TRIPOS>BOND
     1    30    31    1
     2    31    29    1
     3    29    22    1
     4    22    23   ar
     5    23    24   ar
     6    24    25   ar
     7    25    26   ar
     8    26    27    1
     9    26    28   ar
    10    28    21    1
    11    21    19    1
    12    19     1    1
    13     1     2   ar
    14     2     3   ar
    15     3     4    1
    16     3     5   ar
    17     5     9    1
    18     9    10    2
    19     9    11    2
    20     9    12    1
    21    12    14    1
    22    14    15   ar
    23    15    16   ar
    24    16    17   ar
    25    17    18   ar
    26     5     6   ar
    27     6     7    1
    28     6     8   ar
    29    31    32    1
    30    32    33    1
    31    32    34    1
    32    32    35    1
    33    28    22   ar
    34     8     1   ar
    35    18    14   ar
    36    19    20    1
    37    12    13    1
@<TRIPOS>MOLECULE
*****
 35 37 0 0 0
SMALL
GASTEIGER

@<TRIPOS>ATOM
      1 C          62.1302   88.8604   11.3678 C.ar    1  UNL1        0.0495
      2 C          63.0428   88.8308   12.5579 C.ar    1  UNL1        0.0455
      3 C          64.0273   89.9413   12.7759 C.ar    1  UNL1        0.1623
      4 F          64.9399   89.9117   13.9660 F       1  UNL1       -0.2026
      5 C          64.0992   91.0814   11.8038 C.ar    1  UNL1        0.1798
      6 C          63.1866   91.1109   10.6137 C.ar    1  UNL1        0.1623
      7 F          63.2585   92.2511    9.6416 F       1  UNL1       -0.2026
      8 C          62.2021   90.0004   10.3957 C.ar    1  UNL1        0.0455
      9 S          65.0837   92.1919   12.0218 S.O2    1  UNL1        0.0791
     10 O          65.5575   92.0498   10.6057 O.2     1  UNL1       -0.1498
     11 O          64.6098   92.3340   13.4378 O.2     1  UNL1       -0.1498
     12 N          66.0681   93.3025   12.2398 N.pl3   1  UNL1       -0.1983
     13 H          66.5111   93.4032   13.1132 H       1  UNL1        0.1753
     14 C          66.3776   94.2595   11.1270 C.ar    1  UNL1        0.1542
     15 C          67.4075   94.0615   10.0546 C.ar    1  UNL1        0.0725
     16 S          67.3780   95.2623    9.1561 S.2     1  UNL1       -0.0625
     17 C          66.3299   96.2025    9.6732 C.ar    1  UNL1        0.1360
     18 N          65.7116   95.5827   10.8913 N.ar    1  UNL1       -0.2203
     19 N          61.1457   87.7498   11.1499 N.pl3   1  UNL1       -0.3289
     20 H          60.3480   87.9013   10.5931 H       1  UNL1        0.1471
     21 C          61.3766   86.4084   11.7802 C.3     1  UNL1        0.1163
     22 C          62.9404   84.3385   11.9229 C.ar    1  UNL1       -0.0063
     23 C          63.8381   83.3402   11.2541 C.ar    1  UNL1       -0.0030
     24 C          64.0699   83.4133    9.7739 C.ar    1  UNL1        0.0020
     25 C          63.4039   84.4847    8.9625 C.ar    1  UNL1        0.0293
     26 C          62.5062   85.4831    9.6313 C.ar    1  UNL1        0.1375
     27 F          61.8401   86.5546    8.8198 F       1  UNL1       -0.2045
     28 C          62.2744   85.4100   11.1115 C.ar    1  UNL1        0.0222
     29 C          62.7086   84.2655   13.4031 C.3     1  UNL1        0.0989
     30 C          65.2061   84.2079   14.1166 C.3     1  UNL1        0.0898
     31 N          63.7976   84.6664   14.3534 N.3     1  UNL1       -0.2703
     32 C          63.4782   85.5257   15.5407 C.3     1  UNL1        0.0458
     33 C          62.4495   84.5289   15.9856 C.3     1  UNL1        0.0160
     34 C          64.5069   86.5226   15.0958 C.3     1  UNL1        0.0160
     35 C          63.1589   86.3851   16.7279 C.3     1  UNL1        0.0160
@<TRIPOS>BOND
     1    30    31    1
     2    31    29    1
     3    29    22    1
     4    22    23   ar
     5    23    24   ar
     6    24    25   ar
     7    25    26   ar
     8    26    27    1
     9    26    28   ar
    10    28    21    1
    11    21    19    1
    12    19     1    1
    13     1     2   ar
    14     2     3   ar
    15     3     4    1
    16     3     5   ar
    17     5     9    1
    18     9    10    2
    19     9    11    2
    20     9    12    1
    21    12    14    1
    22    14    15   ar
    23    15    16   ar
    24    16    17   ar
    25    17    18   ar
    26     5     6   ar
    27     6     7    1
    28     6     8   ar
    29    31    32    1
    30    32    33    1
    31    32    34    1
    32    32    35    1
    33    28    22   ar
    34     8     1   ar
    35    18    14   ar
    36    19    20    1
    37    12    13    1
@<TRIPOS>MOLECULE
*****
 35 37 0 0 0
SMALL
GASTEIGER

@<TRIPOS>ATOM
      1 C          63.5684   88.7808   12.6597 C.ar    1  UNL1        0.0495
      2 C          64.1727   88.4928   14.0020 C.ar    1  UNL1        0.0455
      3 C          64.1789   87.0914   14.5367 C.ar    1  UNL1        0.1623
      4 F          64.7833   86.8035   15.8791 F       1  UNL1       -0.2026
      5 C          63.5808   85.9779   13.7291 C.ar    1  UNL1        0.1798
      6 C          62.9765   86.2659   12.3867 C.ar    1  UNL1        0.1623
      7 F          62.3783   85.1523   11.5791 F       1  UNL1       -0.2026
      8 C          62.9702   87.6673   11.8521 C.ar    1  UNL1        0.0455
      9 S          63.5870   84.5764   14.2637 S.O2    1  UNL1        0.0791
     10 O          62.1345   84.7042   14.6157 O.2     1  UNL1       -0.1498
     11 O          65.0395   84.4486   13.9118 O.2     1  UNL1       -0.1498
     12 N          63.5933   83.1750   14.7984 N.pl3   1  UNL1       -0.1983
     13 H          63.8597   83.0050   15.7308 H       1  UNL1        0.1753
     14 C          63.1936   82.0325   13.9124 C.ar    1  UNL1        0.1542
     15 C          63.2899   82.0017   12.4158 C.ar    1  UNL1        0.0725
     16 S          62.7833   80.6704   11.9459 S.2     1  UNL1       -0.0625
     17 C          62.3739   79.8782   13.1521 C.ar    1  UNL1        0.1360
     18 N          62.6275   80.7200   14.3674 N.ar    1  UNL1       -0.2203
     19 N          63.5622   90.1823   12.1250 N.pl3   1  UNL1       -0.3289
     20 H          63.4601   90.3400   11.1586 H       1  UNL1        0.1471
     21 C          63.7115   91.3434   13.0628 C.3     1  UNL1        0.1163
     22 C          66.1123   92.2506   12.6590 C.ar    1  UNL1       -0.0063
     23 C          67.4673   92.6196   13.1860 C.ar    1  UNL1       -0.0030
     24 C          67.7765   92.4503   14.6440 C.ar    1  UNL1        0.0020
     25 C          66.7307   91.9121   15.5749 C.ar    1  UNL1        0.0293
     26 C          65.3757   91.5431   15.0479 C.ar    1  UNL1        0.1375
     27 F          64.3299   91.0049   15.9788 F       1  UNL1       -0.2045
     28 C          65.0665   91.7124   13.5899 C.ar    1  UNL1        0.0222
     29 C          65.8031   92.4199   11.2010 C.3     1  UNL1        0.0989
     30 C          67.9002   91.9864    9.7298 C.3     1  UNL1        0.0898
     31 N          66.8597   92.9255   10.2640 N.3     1  UNL1       -0.2703
     32 C          66.8758   94.3704    9.8612 C.3     1  UNL1        0.0458
     33 C          68.1644   94.1510    9.1255 C.3     1  UNL1        0.0160
     34 C          65.5871   94.5898   10.5969 C.3     1  UNL1        0.0160
     35 C          66.8918   95.8152    9.4584 C.3     1  UNL1        0.0160
@<TRIPOS>BOND
     1    30    31    1
     2    31    29    1
     3    29    22    1
     4    22    23   ar
     5    23    24   ar
     6    24    25   ar
     7    25    26   ar
     8    26    27    1
     9    26    28   ar
    10    28    21    1
    11    21    19    1
    12    19     1    1
    13     1     2   ar
    14     2     3   ar
    15     3     4    1
    16     3     5   ar
    17     5     9    1
    18     9    10    2
    19     9    11    2
    20     9    12    1
    21    12    14    1
    22    14    15   ar
    23    15    16   ar
    24    16    17   ar
    25    17    18   ar
    26     5     6   ar
    27     6     7    1
    28     6     8   ar
    29    31    32    1
    30    32    33    1
    31    32    34    1
    32    32    35    1
    33    28    22   ar
    34     8     1   ar
    35    18    14   ar
    36    19    20    1
    37    12    13    1
