@<TRIPOS>MOLECULE
*****
 29 31 0 0 0
SMALL
GASTEIGER

@<TRIPOS>ATOM
      1 C          64.6339   91.5330   12.4964 C.ar    1  UNL1        0.1663
      2 C          64.2972   90.4892   13.5197 C.ar    1  UNL1        0.0942
      3 CL         65.0556   90.4342   14.8126 Cl      1  UNL1       -0.0790
      4 C          63.2020   89.5003   13.2499 C.ar    1  UNL1        0.0304
      5 C          62.4436   89.5553   11.9570 C.ar    1  UNL1        0.0667
      6 C          62.7803   90.5991   10.9337 C.ar    1  UNL1        0.0304
      7 C          63.8755   91.5879   11.2034 C.ar    1  UNL1        0.0942
      8 CL         64.2122   92.6317   10.1801 Cl      1  UNL1       -0.0790
      9 N          61.3484   88.5664   11.6873 N.pl3   1  UNL1       -0.2149
     10 H          60.5734   88.5132   12.2920 H       1  UNL1        0.1737
     11 S          61.4341   87.6586   10.4963 S.O2    1  UNL1        0.0744
     12 O          61.4047   86.4649   11.4040 O.2     1  UNL1       -0.1499
     13 O          61.4635   88.8524    9.5885 O.2     1  UNL1       -0.1499
     14 C          61.5198   86.7508    9.3052 C.ar    1  UNL1        0.1357
     15 C          62.7980   86.0252    9.0057 C.ar    1  UNL1        0.0219
     16 C          62.8837   85.1175    7.8146 C.ar    1  UNL1        0.0128
     17 C          61.6912   84.9353    6.9231 C.ar    1  UNL1        0.0586
     18 CL         61.7769   84.0275    5.7321 Cl      1  UNL1       -0.0822
     19 C          60.4130   85.6609    7.2227 C.ar    1  UNL1        0.0241
     20 C          60.3273   86.5687    8.4137 C.ar    1  UNL1        0.0773
     21 CL         59.0491   87.2943    8.7132 Cl      1  UNL1       -0.0808
     22 O          65.7291   92.5218   12.7661 O.3     1  UNL1       -0.4502
     23 C          68.8399   92.1120    8.6242 C.3     1  UNL1        0.0328
     24 C          68.0167   92.9554    9.5522 C.ar    1  UNL1        0.0003
     25 C          67.9258   94.4371    9.3373 C.ar    1  UNL1        0.0948
     26 N          67.1026   95.2804   10.2653 N.ar    1  UNL1       -0.2395
     27 C          66.3704   94.6420   11.4082 C.ar    1  UNL1        0.1362
     28 C          66.4613   93.1603   11.6231 C.ar    1  UNL1        0.1641
     29 C          67.2845   92.3170   10.6951 C.ar    1  UNL1        0.0364
@<TRIPOS>BOND
     1    23    24    1
     2    24    25   ar
     3    25    26   ar
     4    26    27   ar
     5    27    28   ar
     6    28    22    1
     7    22     1    1
     8     1     2   ar
     9     2     3    1
    10     2     4   ar
    11     4     5   ar
    12     5     9    1
    13     9    11    1
    14    11    12    2
    15    11    13    2
    16    11    14    1
    17    14    15   ar
    18    15    16   ar
    19    16    17   ar
    20    17    18    1
    21    17    19   ar
    22    19    20   ar
    23    20    21    1
    24     5     6   ar
    25     6     7   ar
    26     7     8    1
    27    28    29   ar
    28    29    24   ar
    29     7     1   ar
    30    20    14   ar
    31     9    10    1
@<TRIPOS>MOLECULE
*****
 29 31 0 0 0
SMALL
GASTEIGER

@<TRIPOS>ATOM
      1 C          64.4503   91.5247   12.2670 C.ar    1  UNL1        0.1663
      2 C          63.6349   91.2511   11.0381 C.ar    1  UNL1        0.0942
      3 CL         63.6139   92.2455    9.9153 Cl      1  UNL1       -0.0790
      4 C          62.8406   89.9831   10.9320 C.ar    1  UNL1        0.0304
      5 C          62.8616   88.9887   12.0548 C.ar    1  UNL1        0.0667
      6 C          63.6770   89.2623   13.2837 C.ar    1  UNL1        0.0304
      7 C          64.4713   90.5303   13.3899 C.ar    1  UNL1        0.0942
      8 CL         65.2866   90.8038   14.6188 Cl      1  UNL1       -0.0790
      9 N          62.0673   87.7208   11.9486 N.pl3   1  UNL1       -0.2149
     10 H          61.6051   87.3617   12.7402 H       1  UNL1        0.1737
     11 S          61.9772   86.9998   10.6363 S.O2    1  UNL1        0.0744
     12 O          62.2843   88.2777    9.9132 O.2     1  UNL1       -0.1499
     13 O          61.6701   85.7220   11.3594 O.2     1  UNL1       -0.1499
     14 C          61.8871   86.2789    9.3240 C.ar    1  UNL1        0.1357
     15 C          63.0451   85.4590    8.8376 C.ar    1  UNL1        0.0219
     16 C          62.9550   84.7381    7.5253 C.ar    1  UNL1        0.0128
     17 C          61.7068   84.8370    6.6994 C.ar    1  UNL1        0.0586
     18 CL         61.6167   84.1161    5.3871 Cl      1  UNL1       -0.0822
     19 C          60.5487   85.6569    7.1858 C.ar    1  UNL1        0.0241
     20 C          60.6388   86.3779    8.4981 C.ar    1  UNL1        0.0773
     21 CL         59.4807   87.1977    8.9845 Cl      1  UNL1       -0.0808
     22 O          65.2446   92.7927   12.3732 O.3     1  UNL1       -0.4502
     23 C          67.3125   96.0331    8.8770 C.3     1  UNL1        0.0328
     24 C          67.3358   94.7230    9.6072 C.ar    1  UNL1        0.0003
     25 C          68.4163   93.7232    9.3196 C.ar    1  UNL1        0.0948
     26 N          68.4396   92.4131   10.0499 N.ar    1  UNL1       -0.2395
     27 C          67.3824   92.1030   11.0677 C.ar    1  UNL1        0.1362
     28 C          66.3019   93.1028   11.3553 C.ar    1  UNL1        0.1641
     29 C          66.2786   94.4129   10.6251 C.ar    1  UNL1        0.0364
@<TRIPOS>BOND
     1    23    24    1
     2    24    25   ar
     3    25    26   ar
     4    26    27   ar
     5    27    28   ar
     6    28    22    1
     7    22     1    1
     8     1     2   ar
     9     2     3    1
    10     2     4   ar
    11     4     5   ar
    12     5     9    1
    13     9    11    1
    14    11    12    2
    15    11    13    2
    16    11    14    1
    17    14    15   ar
    18    15    16   ar
    19    16    17   ar
    20    17    18    1
    21    17    19   ar
    22    19    20   ar
    23    20    21    1
    24     5     6   ar
    25     6     7   ar
    26     7     8    1
    27    28    29   ar
    28    29    24   ar
    29     7     1   ar
    30    20    14   ar
    31     9    10    1
@<TRIPOS>MOLECULE
*****
 29 31 0 0 0
SMALL
GASTEIGER

@<TRIPOS>ATOM
      1 C          64.0445   91.6231   12.5898 C.ar    1  UNL1        0.1663
      2 C          63.6067   91.3390   11.1835 C.ar    1  UNL1        0.0942
      3 CL         64.1263   92.1763   10.0526 Cl      1  UNL1       -0.0790
      4 C          62.6493   90.2176   10.9080 C.ar    1  UNL1        0.0304
      5 C          62.1297   89.3802   12.0389 C.ar    1  UNL1        0.0667
      6 C          62.5674   89.6643   13.4452 C.ar    1  UNL1        0.0304
      7 C          63.5248   90.7857   13.7206 C.ar    1  UNL1        0.0942
      8 CL         63.9626   91.0697   15.1269 Cl      1  UNL1       -0.0790
      9 N          61.1723   88.2589   11.7634 N.pl3   1  UNL1       -0.2149
     10 H          60.4398   88.0710   12.3938 H       1  UNL1        0.1737
     11 S          61.3310   87.4237   10.5276 S.O2    1  UNL1        0.0744
     12 O          61.3764   86.1842   11.3711 O.2     1  UNL1       -0.1499
     13 O          61.2855   88.6633    9.6841 O.2     1  UNL1       -0.1499
     14 C          61.4897   86.5886    9.2917 C.ar    1  UNL1        0.1357
     15 C          62.8081   85.9406    8.9886 C.ar    1  UNL1        0.0219
     16 C          62.9668   85.1054    7.7527 C.ar    1  UNL1        0.0128
     17 C          61.8071   84.9183    6.8200 C.ar    1  UNL1        0.0586
     18 CL         61.9658   84.0831    5.5841 Cl      1  UNL1       -0.0822
     19 C          60.4886   85.5663    7.1231 C.ar    1  UNL1        0.0241
     20 C          60.3299   86.4014    8.3590 C.ar    1  UNL1        0.0773
     21 CL         59.0115   87.0494    8.6621 Cl      1  UNL1       -0.0808
     22 O          65.0018   92.7444   12.8652 O.3     1  UNL1       -0.4502
     23 C          68.9376   92.4544   16.2455 C.3     1  UNL1        0.0328
     24 C          68.4099   92.3008   14.8498 C.ar    1  UNL1        0.0003
     25 C          69.3224   91.8485   13.7485 C.ar    1  UNL1        0.0948
     26 N          68.7947   91.6949   12.3528 N.ar    1  UNL1       -0.2395
     27 C          67.3546   91.9935   12.0584 C.ar    1  UNL1        0.1362
     28 C          66.4421   92.4458   13.1596 C.ar    1  UNL1        0.1641
     29 C          66.9697   92.5994   14.5553 C.ar    1  UNL1        0.0364
@<TRIPOS>BOND
     1    23    24    1
     2    24    25   ar
     3    25    26   ar
     4    26    27   ar
     5    27    28   ar
     6    28    22    1
     7    22     1    1
     8     1     2   ar
     9     2     3    1
    10     2     4   ar
    11     4     5   ar
    12     5     9    1
    13     9    11    1
    14    11    12    2
    15    11    13    2
    16    11    14    1
    17    14    15   ar
    18    15    16   ar
    19    16    17   ar
    20    17    18    1
    21    17    19   ar
    22    19    20   ar
    23    20    21    1
    24     5     6   ar
    25     6     7   ar
    26     7     8    1
    27    28    29   ar
    28    29    24   ar
    29     7     1   ar
    30    20    14   ar
    31     9    10    1
@<TRIPOS>MOLECULE
*****
 29 31 0 0 0
SMALL
GASTEIGER

@<TRIPOS>ATOM
      1 C          64.5699   91.7087   12.5019 C.ar    1  UNL1        0.1663
      2 C          63.8811   91.5898   11.1747 C.ar    1  UNL1        0.0942
      3 CL         64.2011   92.5576   10.0743 Cl      1  UNL1       -0.0790
      4 C          62.8723   90.5031   10.9480 C.ar    1  UNL1        0.0304
      5 C          62.5523   89.5354   12.0485 C.ar    1  UNL1        0.0667
      6 C          63.2411   89.6543   13.3757 C.ar    1  UNL1        0.0304
      7 C          64.2499   90.7409   13.6024 C.ar    1  UNL1        0.0942
      8 CL         64.9387   90.8598   14.9296 Cl      1  UNL1       -0.0790
      9 N          61.5435   88.4487   11.8217 N.pl3   1  UNL1       -0.2149
     10 H          60.5815   88.6548   11.8579 H       1  UNL1        0.1737
     11 S          62.0004   87.0481   11.5399 S.O2    1  UNL1        0.0744
     12 O          60.7515   86.8002   10.7469 O.2     1  UNL1       -0.1499
     13 O          63.2493   87.2959   12.3329 O.2     1  UNL1       -0.1499
     14 C          62.4573   85.6474   11.2581 C.ar    1  UNL1        0.1357
     15 C          62.5067   84.6374   12.3659 C.ar    1  UNL1        0.0219
     16 C          62.9636   83.2368   12.0841 C.ar    1  UNL1        0.0128
     17 C          63.3711   82.8461   10.6944 C.ar    1  UNL1        0.0586
     18 CL         63.8280   81.4455   10.4125 Cl      1  UNL1       -0.0822
     19 C          63.3217   83.8561    9.5864 C.ar    1  UNL1        0.0241
     20 C          62.8648   85.2568    9.8683 C.ar    1  UNL1        0.0773
     21 CL         62.8154   86.2668    8.7604 Cl      1  UNL1       -0.0808
     22 O          65.5787   92.7954   12.7286 O.3     1  UNL1       -0.4502
     23 C          68.8606   92.1470    8.7525 C.3     1  UNL1        0.0328
     24 C          67.9842   93.0386    9.5815 C.ar    1  UNL1        0.0003
     25 C          67.8723   94.4975    9.2513 C.ar    1  UNL1        0.0948
     26 N          66.9960   95.3890   10.0802 N.ar    1  UNL1       -0.2395
     27 C          66.2314   94.8217   11.2393 C.ar    1  UNL1        0.1362
     28 C          66.3433   93.3628   11.5695 C.ar    1  UNL1        0.1641
     29 C          67.2197   92.4713   10.7406 C.ar    1  UNL1        0.0364
@<TRIPOS>BOND
     1    23    24    1
     2    24    25   ar
     3    25    26   ar
     4    26    27   ar
     5    27    28   ar
     6    28    22    1
     7    22     1    1
     8     1     2   ar
     9     2     3    1
    10     2     4   ar
    11     4     5   ar
    12     5     9    1
    13     9    11    1
    14    11    12    2
    15    11    13    2
    16    11    14    1
    17    14    15   ar
    18    15    16   ar
    19    16    17   ar
    20    17    18    1
    21    17    19   ar
    22    19    20   ar
    23    20    21    1
    24     5     6   ar
    25     6     7   ar
    26     7     8    1
    27    28    29   ar
    28    29    24   ar
    29     7     1   ar
    30    20    14   ar
    31     9    10    1
@<TRIPOS>MOLECULE
*****
 29 31 0 0 0
SMALL
GASTEIGER

@<TRIPOS>ATOM
      1 C          62.7273   88.8177   12.2393 C.ar    1  UNL1        0.1663
      2 C          63.7521   88.7164   13.3300 C.ar    1  UNL1        0.0942
      3 CL         63.8894   87.4453   14.1144 Cl      1  UNL1       -0.0790
      4 C          64.6396   89.8863   13.6363 C.ar    1  UNL1        0.0304
      5 C          64.5023   91.1574   12.8518 C.ar    1  UNL1        0.0667
      6 C          63.4776   91.2587   11.7611 C.ar    1  UNL1        0.0304
      7 C          62.5901   90.0889   11.4548 C.ar    1  UNL1        0.0942
      8 CL         61.5654   90.1902   10.3641 Cl      1  UNL1       -0.0790
      9 N          65.3898   92.3273   13.1581 N.pl3   1  UNL1       -0.2149
     10 H          65.6734   92.5006   14.0848 H       1  UNL1        0.1737
     11 S          65.8451   93.2330   12.0525 S.O2    1  UNL1        0.0744
     12 O          65.5328   92.1637   11.0480 O.2     1  UNL1       -0.1499
     13 O          66.1573   94.3023   13.0571 O.2     1  UNL1       -0.1499
     14 C          66.3004   94.1387   10.9469 C.ar    1  UNL1        0.1357
     15 C          65.7046   95.5081   10.8059 C.ar    1  UNL1        0.0219
     16 C          66.1600   96.4138    9.7003 C.ar    1  UNL1        0.0128
     17 C          67.2110   95.9502    8.7358 C.ar    1  UNL1        0.0586
     18 CL         67.6663   96.8560    7.6302 Cl      1  UNL1       -0.0822
     19 C          67.8068   94.5808    8.8768 C.ar    1  UNL1        0.0241
     20 C          67.3515   93.6751    9.9824 C.ar    1  UNL1        0.0773
     21 CL         67.9472   92.3057   10.1235 Cl      1  UNL1       -0.0808
     22 O          61.8399   87.6479   11.9330 O.3     1  UNL1       -0.4502
     23 C          63.6817   82.8698   11.0511 C.3     1  UNL1        0.0328
     24 C          63.2197   84.1999   10.5339 C.ar    1  UNL1        0.0003
     25 C          63.2166   84.4710    9.0587 C.ar    1  UNL1        0.0948
     26 N          62.7546   85.8010    8.5415 N.ar    1  UNL1       -0.2395
     27 C          62.2957   86.8600    9.4996 C.ar    1  UNL1        0.1362
     28 C          62.2988   86.5889   10.9748 C.ar    1  UNL1        0.1641
     29 C          62.7608   85.2588   11.4920 C.ar    1  UNL1        0.0364
@<TRIPOS>BOND
     1    23    24    1
     2    24    25   ar
     3    25    26   ar
     4    26    27   ar
     5    27    28   ar
     6    28    22    1
     7    22     1    1
     8     1     2   ar
     9     2     3    1
    10     2     4   ar
    11     4     5   ar
    12     5     9    1
    13     9    11    1
    14    11    12    2
    15    11    13    2
    16    11    14    1
    17    14    15   ar
    18    15    16   ar
    19    16    17   ar
    20    17    18    1
    21    17    19   ar
    22    19    20   ar
    23    20    21    1
    24     5     6   ar
    25     6     7   ar
    26     7     8    1
    27    28    29   ar
    28    29    24   ar
    29     7     1   ar
    30    20    14   ar
    31     9    10    1
@<TRIPOS>MOLECULE
*****
 29 31 0 0 0
SMALL
GASTEIGER

@<TRIPOS>ATOM
      1 C          63.7703   90.1509   13.2329 C.ar    1  UNL1        0.1663
      2 C          63.3778   89.0255   12.3223 C.ar    1  UNL1        0.0942
      3 CL         62.9802   89.3116   10.9046 Cl      1  UNL1       -0.0790
      4 C          63.3830   87.6138   12.8295 C.ar    1  UNL1        0.0304
      5 C          63.7806   87.3276   14.2472 C.ar    1  UNL1        0.0667
      6 C          64.1731   88.4531   15.1578 C.ar    1  UNL1        0.0304
      7 C          64.1680   89.8647   14.6507 C.ar    1  UNL1        0.0942
      8 CL         64.5605   90.9902   15.5614 Cl      1  UNL1       -0.0790
      9 N          63.7858   85.9159   14.7542 N.pl3   1  UNL1       -0.2149
     10 H          63.8820   85.7394   15.7180 H       1  UNL1        0.1737
     11 S          63.6443   84.7732   13.7929 S.O2    1  UNL1        0.0744
     12 O          62.2301   85.1858   13.5105 O.2     1  UNL1       -0.1499
     13 O          65.0585   84.3606   14.0754 O.2     1  UNL1       -0.1499
     14 C          63.5029   83.6304   12.8317 C.ar    1  UNL1        0.1357
     15 C          64.0357   83.7548   11.4350 C.ar    1  UNL1        0.0219
     16 C          63.8943   82.6121   10.4738 C.ar    1  UNL1        0.0128
     17 C          63.2200   81.3449   10.9091 C.ar    1  UNL1        0.0586
     18 CL         63.0785   80.2021    9.9478 Cl      1  UNL1       -0.0822
     19 C          62.6871   81.2204   12.3057 C.ar    1  UNL1        0.0241
     20 C          62.8285   82.3632   13.2670 C.ar    1  UNL1        0.0773
     21 CL         62.2957   82.2388   14.6636 Cl      1  UNL1       -0.0808
     22 O          63.7652   91.5626   12.7259 O.3     1  UNL1       -0.4502
     23 C          66.2126   94.5375    9.2387 C.3     1  UNL1        0.0328
     24 C          66.2531   93.6627   10.4566 C.ar    1  UNL1        0.0003
     25 C          67.5578   93.4008   11.1487 C.ar    1  UNL1        0.0948
     26 N          67.5983   92.5260   12.3666 N.ar    1  UNL1       -0.2395
     27 C          66.3341   91.9133   12.8923 C.ar    1  UNL1        0.1362
     28 C          65.0295   92.1753   12.2002 C.ar    1  UNL1        0.1641
     29 C          64.9889   93.0500   10.9823 C.ar    1  UNL1        0.0364
@<TRIPOS>BOND
     1    23    24    1
     2    24    25   ar
     3    25    26   ar
     4    26    27   ar
     5    27    28   ar
     6    28    22    1
     7    22     1    1
     8     1     2   ar
     9     2     3    1
    10     2     4   ar
    11     4     5   ar
    12     5     9    1
    13     9    11    1
    14    11    12    2
    15    11    13    2
    16    11    14    1
    17    14    15   ar
    18    15    16   ar
    19    16    17   ar
    20    17    18    1
    21    17    19   ar
    22    19    20   ar
    23    20    21    1
    24     5     6   ar
    25     6     7   ar
    26     7     8    1
    27    28    29   ar
    28    29    24   ar
    29     7     1   ar
    30    20    14   ar
    31     9    10    1
@<TRIPOS>MOLECULE
*****
 29 31 0 0 0
SMALL
GASTEIGER

@<TRIPOS>ATOM
      1 C          62.0143   88.9286   11.9353 C.ar    1  UNL1        0.1663
      2 C          63.2480   88.5113   12.6795 C.ar    1  UNL1        0.0942
      3 CL         63.4273   87.0803   13.0915 Cl      1  UNL1       -0.0790
      4 C          64.3024   89.5252   13.0118 C.ar    1  UNL1        0.0304
      5 C          64.1231   90.9563   12.5998 C.ar    1  UNL1        0.0667
      6 C          62.8894   91.3736   11.8556 C.ar    1  UNL1        0.0304
      7 C          61.8350   90.3598   11.5233 C.ar    1  UNL1        0.0942
      8 CL         60.6013   90.7771   10.7791 Cl      1  UNL1       -0.0790
      9 N          65.1775   91.9701   12.9320 N.pl3   1  UNL1       -0.2149
     10 H          65.5576   92.0057   13.8395 H       1  UNL1        0.1737
     11 S          65.6528   92.9297   11.8816 S.O2    1  UNL1        0.0744
     12 O          66.2469   93.8021   12.9474 O.2     1  UNL1       -0.1499
     13 O          65.0586   92.0574   10.8158 O.2     1  UNL1       -0.1499
     14 C          66.1280   93.8893   10.8313 C.ar    1  UNL1        0.1357
     15 C          65.4474   95.2154   10.6637 C.ar    1  UNL1        0.0219
     16 C          65.9227   96.1750    9.6133 C.ar    1  UNL1        0.0128
     17 C          67.0786   95.8085    8.7305 C.ar    1  UNL1        0.0586
     18 CL         67.5539   96.7681    7.6801 Cl      1  UNL1       -0.0822
     19 C          67.7593   94.4824    8.8980 C.ar    1  UNL1        0.0241
     20 C          67.2840   93.5228    9.9484 C.ar    1  UNL1        0.0773
     21 CL         67.9647   92.1967   10.1159 Cl      1  UNL1       -0.0808
     22 O          60.9599   87.9148   11.6031 O.3     1  UNL1       -0.4502
     23 C          63.2210   84.8804    8.0422 C.3     1  UNL1        0.0328
     24 C          62.0746   85.7475    8.4709 C.ar    1  UNL1        0.0003
     25 C          60.9122   85.9644    7.5480 C.ar    1  UNL1        0.0948
     26 N          59.7657   86.8315    7.9768 N.ar    1  UNL1       -0.2395
     27 C          59.7816   87.4816    9.3284 C.ar    1  UNL1        0.1362
     28 C          60.9440   87.2647   10.2513 C.ar    1  UNL1        0.1641
     29 C          62.0905   86.3976    9.8226 C.ar    1  UNL1        0.0364
@<TRIPOS>BOND
     1    23    24    1
     2    24    25   ar
     3    25    26   ar
     4    26    27   ar
     5    27    28   ar
     6    28    22    1
     7    22     1    1
     8     1     2   ar
     9     2     3    1
    10     2     4   ar
    11     4     5   ar
    12     5     9    1
    13     9    11    1
    14    11    12    2
    15    11    13    2
    16    11    14    1
    17    14    15   ar
    18    15    16   ar
    19    16    17   ar
    20    17    18    1
    21    17    19   ar
    22    19    20   ar
    23    20    21    1
    24     5     6   ar
    25     6     7   ar
    26     7     8    1
    27    28    29   ar
    28    29    24   ar
    29     7     1   ar
    30    20    14   ar
    31     9    10    1
@<TRIPOS>MOLECULE
*****
 29 31 0 0 0
SMALL
GASTEIGER

@<TRIPOS>ATOM
      1 C          63.5496   89.6247   14.3360 C.ar    1  UNL1        0.1663
      2 C          63.6155   88.6198   13.2243 C.ar    1  UNL1        0.0942
      3 CL         63.5824   89.0778   11.7964 Cl      1  UNL1       -0.0790
      4 C          63.7145   87.1569   13.5407 C.ar    1  UNL1        0.0304
      5 C          63.7476   86.6989   14.9686 C.ar    1  UNL1        0.0667
      6 C          63.6817   87.7038   16.0803 C.ar    1  UNL1        0.0304
      7 C          63.5827   89.1667   15.7640 C.ar    1  UNL1        0.0942
      8 CL         63.5168   90.1716   16.8757 Cl      1  UNL1       -0.0790
      9 N          63.8466   85.2360   15.2849 N.pl3   1  UNL1       -0.2149
     10 H          64.0185   84.9426   16.2089 H       1  UNL1        0.1737
     11 S          63.6837   84.2200   14.1935 S.O2    1  UNL1        0.0744
     12 O          62.2437   84.6123   14.0432 O.2     1  UNL1       -0.1499
     13 O          65.1237   83.8277   14.3438 O.2     1  UNL1       -0.1499
     14 C          63.5208   83.2040   13.1021 C.ar    1  UNL1        0.1357
     15 C          64.1979   83.4090   11.7794 C.ar    1  UNL1        0.0219
     16 C          64.0350   82.3930   10.6880 C.ar    1  UNL1        0.0128
     17 C          63.1950   81.1719   10.9193 C.ar    1  UNL1        0.0586
     18 CL         63.0322   80.1559    9.8278 Cl      1  UNL1       -0.0822
     19 C          62.5180   80.9668   12.2420 C.ar    1  UNL1        0.0241
     20 C          62.6808   81.9829   13.3334 C.ar    1  UNL1        0.0773
     21 CL         62.0038   81.7778   14.6561 Cl      1  UNL1       -0.0808
     22 O          63.4506   91.0876   14.0197 O.3     1  UNL1       -0.4502
     23 C          67.8178   93.2502   15.8228 C.3     1  UNL1        0.0328
     24 C          66.8795   92.9714   14.6862 C.ar    1  UNL1        0.0003
     25 C          67.1866   93.4950   13.3145 C.ar    1  UNL1        0.0948
     26 N          66.2483   93.2161   12.1779 N.ar    1  UNL1       -0.2395
     27 C          65.0030   92.4137   12.4129 C.ar    1  UNL1        0.1362
     28 C          64.6960   91.8901   13.7846 C.ar    1  UNL1        0.1641
     29 C          65.6342   92.1690   14.9212 C.ar    1  UNL1        0.0364
@<TRIPOS>BOND
     1    23    24    1
     2    24    25   ar
     3    25    26   ar
     4    26    27   ar
     5    27    28   ar
     6    28    22    1
     7    22     1    1
     8     1     2   ar
     9     2     3    1
    10     2     4   ar
    11     4     5   ar
    12     5     9    1
    13     9    11    1
    14    11    12    2
    15    11    13    2
    16    11    14    1
    17    14    15   ar
    18    15    16   ar
    19    16    17   ar
    20    17    18    1
    21    17    19   ar
    22    19    20   ar
    23    20    21    1
    24     5     6   ar
    25     6     7   ar
    26     7     8    1
    27    28    29   ar
    28    29    24   ar
    29     7     1   ar
    30    20    14   ar
    31     9    10    1
@<TRIPOS>MOLECULE
*****
 29 31 0 0 0
SMALL
GASTEIGER

@<TRIPOS>ATOM
      1 C          63.5872   90.5036   12.3210 C.ar    1  UNL1        0.1663
      2 C          63.6091   89.2557   13.1532 C.ar    1  UNL1        0.0942
      3 CL         64.1210   89.3029   14.5623 Cl      1  UNL1       -0.0790
      4 C          63.1191   87.9607   12.5761 C.ar    1  UNL1        0.0304
      5 C          62.6072   87.9136   11.1670 C.ar    1  UNL1        0.0667
      6 C          62.5854   89.1614   10.3348 C.ar    1  UNL1        0.0304
      7 C          63.0753   90.4564   10.9118 C.ar    1  UNL1        0.0942
      8 CL         63.0535   91.7042   10.0797 Cl      1  UNL1       -0.0790
      9 N          62.1172   86.6187   10.5900 N.pl3   1  UNL1       -0.2149
     10 H          61.5780   86.6195    9.7663 H       1  UNL1        0.1737
     11 S          62.4489   85.3223   11.2679 S.O2    1  UNL1        0.0744
     12 O          61.5292   85.6782   12.3982 O.2     1  UNL1       -0.1499
     13 O          63.3685   84.9665   10.1377 O.2     1  UNL1       -0.1499
     14 C          62.7805   84.0260   11.9459 C.ar    1  UNL1        0.1357
     15 C          62.3623   82.7264   11.3247 C.ar    1  UNL1        0.0219
     16 C          62.6940   81.4300   12.0027 C.ar    1  UNL1        0.0128
     17 C          63.4437   81.4334   13.3018 C.ar    1  UNL1        0.0586
     18 CL         63.7754   80.1371   13.9797 Cl      1  UNL1       -0.0822
     19 C          63.8619   82.7332   13.9230 C.ar    1  UNL1        0.0241
     20 C          63.5303   84.0295   13.2451 C.ar    1  UNL1        0.0773
     21 CL         63.9485   85.3292   13.8663 Cl      1  UNL1       -0.0808
     22 O          64.0772   91.7985   12.8980 O.3     1  UNL1       -0.4502
     23 C          67.9022   92.3552   16.3707 C.3     1  UNL1        0.0328
     24 C          67.4462   92.2560   14.9452 C.ar    1  UNL1        0.0003
     25 C          68.4466   92.3360   13.8304 C.ar    1  UNL1        0.0948
     26 N          67.9906   92.2369   12.4048 N.ar    1  UNL1       -0.2395
     27 C          66.5342   92.0577   12.0940 C.ar    1  UNL1        0.1362
     28 C          65.5338   91.9777   13.2088 C.ar    1  UNL1        0.1641
     29 C          65.9898   92.0769   14.6343 C.ar    1  UNL1        0.0364
@<TRIPOS>BOND
     1    23    24    1
     2    24    25   ar
     3    25    26   ar
     4    26    27   ar
     5    27    28   ar
     6    28    22    1
     7    22     1    1
     8     1     2   ar
     9     2     3    1
    10     2     4   ar
    11     4     5   ar
    12     5     9    1
    13     9    11    1
    14    11    12    2
    15    11    13    2
    16    11    14    1
    17    14    15   ar
    18    15    16   ar
    19    16    17   ar
    20    17    18    1
    21    17    19   ar
    22    19    20   ar
    23    20    21    1
    24     5     6   ar
    25     6     7   ar
    26     7     8    1
    27    28    29   ar
    28    29    24   ar
    29     7     1   ar
    30    20    14   ar
    31     9    10    1
