@<TRIPOS>MOLECULE
*****
 30 33 0 0 0
SMALL
GASTEIGER

@<TRIPOS>ATOM
      1 C          63.1745   82.1873   11.0846 C.3     1  UNL1        0.0310
      2 C          63.1041   82.9552   12.3712 C.ar    1  UNL1       -0.0164
      3 C          63.3971   84.4263   12.3835 C.ar    1  UNL1        0.0160
      4 C          63.3267   85.1943   13.6702 C.ar    1  UNL1        0.0940
      5 C          62.9632   84.4912   14.9442 C.ar    1  UNL1        0.0681
      6 C          62.6702   83.0202   14.9320 C.ar    1  UNL1        0.0197
      7 C          62.7406   82.2521   13.6454 C.ar    1  UNL1        0.0688
      8 N          62.8370   85.0635   16.3251 N.am    1  UNL1       -0.2824
      9 C          63.0432   86.4803   16.7727 C.2     1  UNL1        0.2322
     10 O          62.8392   86.7366   18.2365 O.2     1  UNL1       -0.2744
     11 C          63.4265   87.6745   15.9501 C.3     1  UNL1        0.1309
     12 C          63.6982   87.7471   14.4766 C.2     1  UNL1        0.0681
     13 N          63.6538   86.6433   13.4620 N.2     1  UNL1       -0.2479
     14 H          62.5857   84.4248   17.0309 H       1  UNL1        0.1549
     15 C          64.0625   89.1027   13.9480 C.ar    1  UNL1        0.0140
     16 C          63.2422   89.7285   12.8592 C.ar    1  UNL1        0.0012
     17 C          63.6066   91.0842   12.3306 C.ar    1  UNL1        0.0000
     18 C          64.7912   91.8142   12.8907 C.ar    1  UNL1        0.0000
     19 C          65.6116   91.1884   13.9796 C.ar    1  UNL1        0.0015
     20 C          65.2472   89.8327   14.5082 C.ar    1  UNL1        0.0012
     21 C          66.7962   91.9183   14.5398 C.ar    1  UNL1        0.0192
     22 C          66.6754   92.6587   15.8386 C.ar    1  UNL1        0.0031
     23 C          67.8601   93.3887   16.3988 C.ar    1  UNL1        0.0207
     24 C          69.1655   93.3782   15.6601 C.ar    1  UNL1        0.0989
     25 N          69.2862   92.6377   14.3612 N.ar    1  UNL1       -0.2423
     26 C          68.1016   91.9078   13.8010 C.ar    1  UNL1        0.0988
     27 C          62.4476   80.7811   13.6330 C.3     1  UNL1        0.4183
     28 F          62.1544   79.3101   13.6205 F       1  UNL1       -0.1659
     29 F          60.9903   81.0732   13.4297 F       1  UNL1       -0.1659
     30 F          63.9046   80.4891   13.8362 F       1  UNL1       -0.1659
@<TRIPOS>BOND
     1     1     2    1
     2     2     3   ar
     3     3     4   ar
     4     4     5   ar
     5     5     6   ar
     6     6     7   ar
     7     7    27    1
     8    27    28    1
     9    27    29    1
    10    27    30    1
    11     5     8    1
    12     8     9   am
    13     9    10    2
    14     9    11    1
    15    11    12    1
    16    12    15    1
    17    15    16   ar
    18    16    17   ar
    19    17    18   ar
    20    18    19   ar
    21    19    21    1
    22    21    22   ar
    23    22    23   ar
    24    23    24   ar
    25    24    25   ar
    26    25    26   ar
    27    19    20   ar
    28    12    13    2
    29     7     2   ar
    30    20    15   ar
    31    13     4    1
    32    26    21   ar
    33     8    14    1
@<TRIPOS>MOLECULE
*****
 30 33 0 0 0
SMALL
GASTEIGER

@<TRIPOS>ATOM
      1 C          64.4257   83.3538   15.2480 C.3     1  UNL1        0.0310
      2 C          63.8093   84.3262   14.2864 C.ar    1  UNL1       -0.0164
      3 C          64.2221   85.7681   14.3100 C.ar    1  UNL1        0.0160
      4 C          63.6057   86.7405   13.3484 C.ar    1  UNL1        0.0940
      5 C          62.5766   86.2710   12.3634 C.ar    1  UNL1        0.0681
      6 C          62.1638   84.8291   12.3398 C.ar    1  UNL1        0.0197
      7 C          62.7801   83.8567   13.3013 C.ar    1  UNL1        0.0688
      8 N          61.8430   87.0681   11.3258 N.am    1  UNL1       -0.2824
      9 C          61.9575   88.5315   11.0170 C.2     1  UNL1        0.2322
     10 O          61.0796   89.0335    9.9092 O.2     1  UNL1       -0.2744
     11 C          62.8338   89.5592   11.6695 C.3     1  UNL1        0.1309
     12 C          63.8120   89.3774   12.7921 C.2     1  UNL1        0.0681
     13 N          64.1556   88.1230   13.5392 N.2     1  UNL1       -0.2479
     14 H          61.2016   86.5641   10.7745 H       1  UNL1        0.1549
     15 C          64.5434   90.6135   13.2246 C.ar    1  UNL1        0.0140
     16 C          64.7731   90.8773   14.6832 C.ar    1  UNL1        0.0012
     17 C          65.5045   92.1135   15.1157 C.ar    1  UNL1        0.0000
     18 C          66.0062   93.0859   14.0896 C.ar    1  UNL1        0.0000
     19 C          65.7764   92.8221   12.6309 C.ar    1  UNL1        0.0015
     20 C          65.0450   91.5859   12.1984 C.ar    1  UNL1        0.0012
     21 C          66.2781   93.7944   11.6048 C.ar    1  UNL1        0.0192
     22 C          66.9342   93.2919   10.3531 C.ar    1  UNL1        0.0031
     23 C          67.4358   94.2642    9.3270 C.ar    1  UNL1        0.0207
     24 C          67.2814   95.7390    9.5526 C.ar    1  UNL1        0.0989
     25 N          66.6252   96.2415   10.8044 N.ar    1  UNL1       -0.2423
     26 C          66.1236   95.2692   11.8306 C.ar    1  UNL1        0.0988
     27 C          62.3673   82.4148   13.2778 C.3     1  UNL1        0.4183
     28 F          61.9546   80.9729   13.2542 F       1  UNL1       -0.1659
     29 F          63.1224   82.2196   11.9965 F       1  UNL1       -0.1659
     30 F          61.6123   82.6100   14.5591 F       1  UNL1       -0.1659
@<TRIPOS>BOND
     1     1     2    1
     2     2     3   ar
     3     3     4   ar
     4     4     5   ar
     5     5     6   ar
     6     6     7   ar
     7     7    27    1
     8    27    28    1
     9    27    29    1
    10    27    30    1
    11     5     8    1
    12     8     9   am
    13     9    10    2
    14     9    11    1
    15    11    12    1
    16    12    15    1
    17    15    16   ar
    18    16    17   ar
    19    17    18   ar
    20    18    19   ar
    21    19    21    1
    22    21    22   ar
    23    22    23   ar
    24    23    24   ar
    25    24    25   ar
    26    25    26   ar
    27    19    20   ar
    28    12    13    2
    29     7     2   ar
    30    20    15   ar
    31    13     4    1
    32    26    21   ar
    33     8    14    1
@<TRIPOS>MOLECULE
*****
 30 33 0 0 0
SMALL
GASTEIGER

@<TRIPOS>ATOM
      1 C          64.1446   83.3043   11.0027 C.3     1  UNL1        0.0310
      2 C          63.7813   83.7729   12.3805 C.ar    1  UNL1       -0.0164
      3 C          63.9909   85.2078   12.7642 C.ar    1  UNL1        0.0160
      4 C          63.6276   85.6763   14.1421 C.ar    1  UNL1        0.0940
      5 C          63.0548   84.7101   15.1361 C.ar    1  UNL1        0.0681
      6 C          62.8452   83.2753   14.7525 C.ar    1  UNL1        0.0197
      7 C          63.2085   82.8066   13.3746 C.ar    1  UNL1        0.0688
      8 N          62.6283   84.9668   16.5512 N.am    1  UNL1       -0.2824
      9 C          62.6693   86.2533   17.3215 C.2     1  UNL1        0.2322
     10 O          62.1661   86.1830   18.7329 O.2     1  UNL1       -0.2744
     11 C          63.1469   87.6006   16.8671 C.3     1  UNL1        0.1309
     12 C          63.7015   87.9944   15.5302 C.2     1  UNL1        0.0681
     13 N          63.9154   87.1380   14.3174 N.2     1  UNL1       -0.2479
     14 H          62.2747   84.1881   17.0387 H       1  UNL1        0.1549
     15 C          64.0940   89.4350   15.3871 C.ar    1  UNL1        0.0140
     16 C          63.7890   90.4083   16.4871 C.ar    1  UNL1        0.0012
     17 C          64.1816   91.8490   16.3439 C.ar    1  UNL1        0.0000
     18 C          64.8791   92.3164   15.1009 C.ar    1  UNL1        0.0000
     19 C          65.1840   91.3431   14.0010 C.ar    1  UNL1        0.0015
     20 C          64.7915   89.9024   14.1441 C.ar    1  UNL1        0.0012
     21 C          65.8815   91.8105   12.7580 C.ar    1  UNL1        0.0192
     22 C          65.0803   92.2665   11.5748 C.ar    1  UNL1        0.0031
     23 C          65.7778   92.7339   10.3318 C.ar    1  UNL1        0.0207
     24 C          67.2765   92.7453   10.2720 C.ar    1  UNL1        0.0989
     25 N          68.0778   92.2892   11.4553 N.ar    1  UNL1       -0.2423
     26 C          67.3803   91.8218   12.6983 C.ar    1  UNL1        0.0988
     27 C          62.9989   81.3718   12.9908 C.3     1  UNL1        0.4183
     28 F          62.7893   79.9370   12.6070 F       1  UNL1       -0.1659
     29 F          61.6640   81.7237   12.4042 F       1  UNL1       -0.1659
     30 F          64.3338   81.0199   13.5774 F       1  UNL1       -0.1659
@<TRIPOS>BOND
     1     1     2    1
     2     2     3   ar
     3     3     4   ar
     4     4     5   ar
     5     5     6   ar
     6     6     7   ar
     7     7    27    1
     8    27    28    1
     9    27    29    1
    10    27    30    1
    11     5     8    1
    12     8     9   am
    13     9    10    2
    14     9    11    1
    15    11    12    1
    16    12    15    1
    17    15    16   ar
    18    16    17   ar
    19    17    18   ar
    20    18    19   ar
    21    19    21    1
    22    21    22   ar
    23    22    23   ar
    24    23    24   ar
    25    24    25   ar
    26    25    26   ar
    27    19    20   ar
    28    12    13    2
    29     7     2   ar
    30    20    15   ar
    31    13     4    1
    32    26    21   ar
    33     8    14    1
@<TRIPOS>MOLECULE
*****
 30 33 0 0 0
SMALL
GASTEIGER

@<TRIPOS>ATOM
      1 C          64.2002   82.0408   14.1009 C.3     1  UNL1        0.0310
      2 C          63.7618   83.2365   13.3084 C.ar    1  UNL1       -0.0164
      3 C          63.9376   84.6154   13.8722 C.ar    1  UNL1        0.0160
      4 C          63.4991   85.8112   13.0798 C.ar    1  UNL1        0.0940
      5 C          62.8850   85.6281   11.7237 C.ar    1  UNL1        0.0681
      6 C          62.7092   84.2493   11.1598 C.ar    1  UNL1        0.0197
      7 C          63.1476   83.0534   11.9522 C.ar    1  UNL1        0.0688
      8 N          62.3835   86.6761   10.7748 N.am    1  UNL1       -0.2824
      9 C          62.3723   88.1661   10.9480 C.2     1  UNL1        0.2322
     10 O          61.7976   88.9497    9.8053 O.2     1  UNL1       -0.2744
     11 C          62.8599   88.9759   12.1125 C.3     1  UNL1        0.1309
     12 C          63.4791   88.4959   13.3917 C.2     1  UNL1        0.0681
     13 N          63.7636   87.0875   13.8222 N.2     1  UNL1       -0.2479
     14 H          62.0126   86.3418    9.9263 H       1  UNL1        0.1549
     15 C          63.8647   89.5658   14.3697 C.ar    1  UNL1        0.0140
     16 C          62.9078   89.9746   15.4502 C.ar    1  UNL1        0.0012
     17 C          63.2936   91.0446   16.4282 C.ar    1  UNL1        0.0000
     18 C          64.6360   91.7058   16.3258 C.ar    1  UNL1        0.0000
     19 C          65.5929   91.2971   15.2452 C.ar    1  UNL1        0.0015
     20 C          65.2072   90.2271   14.2672 C.ar    1  UNL1        0.0012
     21 C          66.9354   91.9583   15.1428 C.ar    1  UNL1        0.0192
     22 C          67.3841   92.9137   16.2085 C.ar    1  UNL1        0.0031
     23 C          68.7266   93.5749   16.1060 C.ar    1  UNL1        0.0207
     24 C          69.6203   93.2808   14.9379 C.ar    1  UNL1        0.0989
     25 N          69.1715   92.3253   13.8721 N.ar    1  UNL1       -0.2423
     26 C          67.8290   91.6641   13.9746 C.ar    1  UNL1        0.0988
     27 C          62.9718   81.6746   11.3885 C.3     1  UNL1        0.4183
     28 F          62.7960   80.2957   10.8249 F       1  UNL1       -0.1659
     29 F          61.8140   81.4439   12.3139 F       1  UNL1       -0.1659
     30 F          64.1296   81.9052   10.4632 F       1  UNL1       -0.1659
@<TRIPOS>BOND
     1     1     2    1
     2     2     3   ar
     3     3     4   ar
     4     4     5   ar
     5     5     6   ar
     6     6     7   ar
     7     7    27    1
     8    27    28    1
     9    27    29    1
    10    27    30    1
    11     5     8    1
    12     8     9   am
    13     9    10    2
    14     9    11    1
    15    11    12    1
    16    12    15    1
    17    15    16   ar
    18    16    17   ar
    19    17    18   ar
    20    18    19   ar
    21    19    21    1
    22    21    22   ar
    23    22    23   ar
    24    23    24   ar
    25    24    25   ar
    26    25    26   ar
    27    19    20   ar
    28    12    13    2
    29     7     2   ar
    30    20    15   ar
    31    13     4    1
    32    26    21   ar
    33     8    14    1
@<TRIPOS>MOLECULE
*****
 30 33 0 0 0
SMALL
GASTEIGER

@<TRIPOS>ATOM
      1 C          60.1802   88.9650    8.2292 C.3     1  UNL1        0.0310
      2 C          60.9127   88.1763    9.2739 C.ar    1  UNL1       -0.0164
      3 C          61.5516   88.8802   10.4342 C.ar    1  UNL1        0.0160
      4 C          62.2841   88.0915   11.4789 C.ar    1  UNL1        0.0940
      5 C          62.3777   86.5990   11.3633 C.ar    1  UNL1        0.0681
      6 C          61.7388   85.8950   10.2031 C.ar    1  UNL1        0.0197
      7 C          61.0062   86.6836    9.1583 C.ar    1  UNL1        0.0688
      8 N          63.0551   85.6300   12.2866 N.am    1  UNL1       -0.2824
      9 C          63.8062   85.9145   13.5535 C.2     1  UNL1        0.2322
     10 O          64.3730   84.7170   14.2569 O.2     1  UNL1       -0.2744
     11 C          64.0654   87.2380   14.2099 C.3     1  UNL1        0.1309
     12 C          63.6376   88.6041   13.7617 C.2     1  UNL1        0.0681
     13 N          62.8448   88.9839   12.5463 N.2     1  UNL1       -0.2479
     14 H          62.9993   84.6821   12.0268 H       1  UNL1        0.1549
     15 C          64.0581   89.7405   14.6457 C.ar    1  UNL1        0.0140
     16 C          63.1200   90.2626   15.6933 C.ar    1  UNL1        0.0012
     17 C          63.5406   91.3992   16.5774 C.ar    1  UNL1        0.0000
     18 C          64.8992   92.0135   16.4139 C.ar    1  UNL1        0.0000
     19 C          65.8373   91.4914   15.3663 C.ar    1  UNL1        0.0015
     20 C          65.4167   90.3549   14.4822 C.ar    1  UNL1        0.0012
     21 C          67.1959   92.1058   15.2028 C.ar    1  UNL1        0.0192
     22 C          67.6859   93.1176   16.1958 C.ar    1  UNL1        0.0031
     23 C          69.0445   93.7320   16.0323 C.ar    1  UNL1        0.0207
     24 C          69.9131   93.3345   14.8758 C.ar    1  UNL1        0.0989
     25 N          69.4231   92.3226   13.8828 N.ar    1  UNL1       -0.2423
     26 C          68.0645   91.7082   14.0463 C.ar    1  UNL1        0.0988
     27 C          60.3673   85.9798    7.9981 C.3     1  UNL1        0.4183
     28 F          59.7285   85.2758    6.8378 F       1  UNL1       -0.1659
     29 F          61.7231   85.5913    7.4872 F       1  UNL1       -0.1659
     30 F          59.0116   86.3682    8.5089 F       1  UNL1       -0.1659
@<TRIPOS>BOND
     1     1     2    1
     2     2     3   ar
     3     3     4   ar
     4     4     5   ar
     5     5     6   ar
     6     6     7   ar
     7     7    27    1
     8    27    28    1
     9    27    29    1
    10    27    30    1
    11     5     8    1
    12     8     9   am
    13     9    10    2
    14     9    11    1
    15    11    12    1
    16    12    15    1
    17    15    16   ar
    18    16    17   ar
    19    17    18   ar
    20    18    19   ar
    21    19    21    1
    22    21    22   ar
    23    22    23   ar
    24    23    24   ar
    25    24    25   ar
    26    25    26   ar
    27    19    20   ar
    28    12    13    2
    29     7     2   ar
    30    20    15   ar
    31    13     4    1
    32    26    21   ar
    33     8    14    1
@<TRIPOS>MOLECULE
*****
 30 33 0 0 0
SMALL
GASTEIGER

@<TRIPOS>ATOM
      1 C          63.9849   83.0763   15.4714 C.3     1  UNL1        0.0310
      2 C          63.4195   83.5442   14.1633 C.ar    1  UNL1       -0.0164
      3 C          63.5173   84.9908   13.7785 C.ar    1  UNL1        0.0160
      4 C          62.9519   85.4588   12.4703 C.ar    1  UNL1        0.0940
      5 C          62.2888   84.4803   11.5470 C.ar    1  UNL1        0.0681
      6 C          62.1909   83.0338   11.9317 C.ar    1  UNL1        0.0197
      7 C          62.7563   82.5657   13.2398 C.ar    1  UNL1        0.0688
      8 N          61.6642   84.7343   10.2070 N.am    1  UNL1       -0.2824
      9 C          61.5485   86.0298    9.4596 C.2     1  UNL1        0.2322
     10 O          60.8617   85.9539    8.1282 O.2     1  UNL1       -0.2744
     11 C          62.0289   87.3909    9.8675 C.3     1  UNL1        0.1309
     12 C          62.7435   87.7930   11.1236 C.2     1  UNL1        0.0681
     13 N          63.1543   86.9331   12.2819 N.2     1  UNL1       -0.2479
     14 H          61.2792   83.9468    9.7589 H       1  UNL1        0.1549
     15 C          63.0937   89.2471   11.2361 C.ar    1  UNL1        0.0140
     16 C          62.7506   90.1897   10.1208 C.ar    1  UNL1        0.0012
     17 C          63.1008   91.6440   10.2334 C.ar    1  UNL1        0.0000
     18 C          63.7941   92.1556   11.4613 C.ar    1  UNL1        0.0000
     19 C          64.1371   91.2130   12.5766 C.ar    1  UNL1        0.0015
     20 C          63.7869   89.7588   12.4640 C.ar    1  UNL1        0.0012
     21 C          64.8304   91.7247   13.8044 C.ar    1  UNL1        0.0192
     22 C          66.1361   92.4522   13.6802 C.ar    1  UNL1        0.0031
     23 C          66.8294   92.9639   14.9081 C.ar    1  UNL1        0.0207
     24 C          66.2168   92.7480   16.2602 C.ar    1  UNL1        0.0989
     25 N          64.9109   92.0204   16.3843 N.ar    1  UNL1       -0.2423
     26 C          64.2177   91.5087   15.1565 C.ar    1  UNL1        0.0988
     27 C          62.6586   81.1192   13.6246 C.3     1  UNL1        0.4183
     28 F          62.5607   79.6728   14.0095 F       1  UNL1       -0.1659
     29 F          61.3108   81.3722   14.2328 F       1  UNL1       -0.1659
     30 F          64.0061   80.8663   13.0166 F       1  UNL1       -0.1659
@<TRIPOS>BOND
     1     1     2    1
     2     2     3   ar
     3     3     4   ar
     4     4     5   ar
     5     5     6   ar
     6     6     7   ar
     7     7    27    1
     8    27    28    1
     9    27    29    1
    10    27    30    1
    11     5     8    1
    12     8     9   am
    13     9    10    2
    14     9    11    1
    15    11    12    1
    16    12    15    1
    17    15    16   ar
    18    16    17   ar
    19    17    18   ar
    20    18    19   ar
    21    19    21    1
    22    21    22   ar
    23    22    23   ar
    24    23    24   ar
    25    24    25   ar
    26    25    26   ar
    27    19    20   ar
    28    12    13    2
    29     7     2   ar
    30    20    15   ar
    31    13     4    1
    32    26    21   ar
    33     8    14    1
