@<TRIPOS>MOLECULE
*****
 40 44 0 0 0
SMALL
GASTEIGER

@<TRIPOS>ATOM
      1 C          60.4478   88.6820    8.8873 C.ar    1  UNL1        0.1512
      2 C          60.0656   89.9547    8.1914 C.ar    1  UNL1        0.0619
      3 C          59.5739   89.6029    6.8187 C.ar    1  UNL1        0.0987
      4 S          59.6522   88.1128    6.6661 S.2     1  UNL1       -0.0618
      5 C          60.1923   87.5436    7.9445 C.ar    1  UNL1        0.1178
      6 N          59.0891   90.5712    5.7808 N.ar    1  UNL1       -0.2823
      7 C          57.6725   91.0277    5.5941 C.ar    1  UNL1        0.1831
      8 N          57.6437   91.9916    4.4452 N.ar    1  UNL1       -0.2236
      9 C          59.0425   92.1310    3.9218 C.ar    1  UNL1        0.0991
     10 C          59.6181   92.9438    2.8003 C.ar    1  UNL1        0.0207
     11 C          61.0871   92.8787    2.5041 C.ar    1  UNL1        0.0046
     12 C          61.9805   92.0008    3.3296 C.ar    1  UNL1        0.0017
     13 C          61.4048   91.1880    4.4511 C.ar    1  UNL1        0.0191
     14 C          59.9358   91.2531    4.7472 C.ar    1  UNL1        0.0835
     15 C          61.6629   93.6915    1.3825 C.ar    1  UNL1        0.0397
     16 C          60.9060   94.6439    0.5050 C.ar    1  UNL1        0.1216
     17 N          61.8719   95.2356   -0.4782 N.ar    1  UNL1       -0.1677
     18 N          63.2259   94.6489   -0.2084 N.ar    1  UNL1       -0.2494
     19 C          63.0966   93.6946    0.9416 C.ar    1  UNL1        0.0966
     20 C          64.4874   94.9616   -0.9572 C.3     1  UNL1        0.1289
     21 C          64.4196   95.6670   -2.2792 C.3     1  UNL1        0.0437
     22 C          64.6510   94.9035   -3.5494 C.3     1  UNL1        0.0742
     23 N          63.7701   93.7400   -3.8962 N.3     1  UNL1       -0.2703
     24 C          62.2795   93.8692   -3.7875 C.3     1  UNL1        0.0897
     25 C          64.3795   92.4473   -4.3515 C.3     1  UNL1        0.0897
     26 C          60.4343   86.0910    8.2301 C.2     1  UNL1        0.2518
     27 N          61.0080   85.6718    9.5511 N.am    1  UNL1       -0.3248
     28 O          60.1027   85.0577    7.1945 O.2     1  UNL1       -0.2697
     29 H          61.2256   86.3500   10.2307 H       1  UNL1        0.1453
     30 H          61.1669   84.7184    9.7385 H       1  UNL1        0.1453
     31 O          60.9902   88.5678   10.2810 O.3     1  UNL1       -0.4740
     32 C          59.8158   90.2562   11.8685 C.3     1  UNL1        0.0523
     33 C          61.0509   89.7790   11.1638 C.3     1  UNL1        0.1891
     34 C          62.3469   90.5129   11.3419 C.ar    1  UNL1        0.0278
     35 C          62.9494   91.2615   10.1901 C.ar    1  UNL1        0.0000
     36 C          64.2453   91.9954   10.3682 C.ar    1  UNL1       -0.0002
     37 C          64.9389   91.9808   11.6981 C.ar    1  UNL1        0.0008
     38 C          64.3365   91.2323   12.8499 C.ar    1  UNL1        0.0112
     39 C          63.0405   90.4983   12.6719 C.ar    1  UNL1        0.0570
     40 CL         62.4381   89.7498   13.8236 Cl      1  UNL1       -0.0825
@<TRIPOS>BOND
     1    33    32    1
     2    33    31    1
     3    31     1    1
     4     1     2   ar
     5     2     3   ar
     6     3     6    1
     7     6     7   ar
     8     7     8   ar
     9     8     9   ar
    10     9    10   ar
    11    10    11   ar
    12    11    15    1
    13    15    16   ar
    14    16    17   ar
    15    17    18   ar
    16    18    20    1
    17    20    21    1
    18    21    22    1
    19    22    23    1
    20    23    24    1
    21    23    25    1
    22    18    19   ar
    23    11    12   ar
    24    12    13   ar
    25    13    14   ar
    26     3     4   ar
    27     4     5   ar
    28     5    26    1
    29    26    27   am
    30    26    28    2
    31    33    34    1
    32    34    35   ar
    33    35    36   ar
    34    36    37   ar
    35    37    38   ar
    36    38    39   ar
    37    39    40    1
    38     5     1   ar
    39    39    34   ar
    40    14     6   ar
    41    14     9   ar
    42    19    15   ar
    43    27    29    1
    44    27    30    1
@<TRIPOS>MOLECULE
*****
 40 44 0 0 0
SMALL
GASTEIGER

@<TRIPOS>ATOM
      1 C          60.4787   88.7241    8.8866 C.ar    1  UNL1        0.1512
      2 C          60.1118   89.9911    8.1726 C.ar    1  UNL1        0.0619
      3 C          59.6150   89.6256    6.8053 C.ar    1  UNL1        0.0987
      4 S          59.6748   88.1326    6.6742 S.2     1  UNL1       -0.0618
      5 C          60.2086   87.5754    7.9605 C.ar    1  UNL1        0.1178
      6 N          59.1415   90.5847    5.7536 N.ar    1  UNL1       -0.2823
      7 C          57.7303   91.0548    5.5603 C.ar    1  UNL1        0.1831
      8 N          57.7127   92.0027    4.3979 N.ar    1  UNL1       -0.2236
      9 C          59.1131   92.1184    3.8728 C.ar    1  UNL1        0.0991
     10 C          59.6982   92.9085    2.7400 C.ar    1  UNL1        0.0207
     11 C          61.1663   92.8222    2.4452 C.ar    1  UNL1        0.0046
     12 C          62.0494   91.9459    3.2831 C.ar    1  UNL1        0.0017
     13 C          61.4643   91.1557    4.4159 C.ar    1  UNL1        0.0191
     14 C          59.9961   91.2420    4.7108 C.ar    1  UNL1        0.0835
     15 C          61.7515   93.6124    1.3123 C.ar    1  UNL1        0.0397
     16 C          62.5282   94.8896    1.4368 C.ar    1  UNL1        0.1216
     17 N          62.9194   95.3306    0.0575 N.ar    1  UNL1       -0.1677
     18 N          62.3846   94.3259   -0.9195 N.ar    1  UNL1       -0.2494
     19 C          61.6628   93.2640   -0.1440 C.ar    1  UNL1        0.0966
     20 C          62.5436   94.3745   -2.4102 C.3     1  UNL1        0.1289
     21 C          61.4521   93.8549   -3.2983 C.3     1  UNL1        0.0437
     22 C          60.1162   94.5366   -3.3218 C.3     1  UNL1        0.0742
     23 N          58.9664   93.9602   -2.5499 N.3     1  UNL1       -0.2703
     24 C          58.3958   92.6280   -2.9370 C.3     1  UNL1        0.0897
     25 C          58.3872   94.7160   -1.3910 C.3     1  UNL1        0.0897
     26 C          60.4330   86.1242    8.2670 C.2     1  UNL1        0.2518
     27 N          60.9929   85.7164    9.5975 N.am    1  UNL1       -0.3248
     28 O          60.0974   85.0808    7.2429 O.2     1  UNL1       -0.2697
     29 H          61.2132   86.4012   10.2696 H       1  UNL1        0.1453
     30 H          61.1401   84.7640    9.7986 H       1  UNL1        0.1453
     31 O          61.0205   88.6233   10.2816 O.3     1  UNL1       -0.4740
     32 C          59.8482   90.3532   11.8254 C.3     1  UNL1        0.0523
     33 C          61.0873   89.8444   11.1503 C.3     1  UNL1        0.1891
     34 C          62.3932   90.5565   11.3439 C.ar    1  UNL1        0.0278
     35 C          63.0178   91.3014   10.2016 C.ar    1  UNL1        0.0000
     36 C          64.3237   92.0136   10.3952 C.ar    1  UNL1       -0.0002
     37 C          65.0049   91.9809   11.7311 C.ar    1  UNL1        0.0008
     38 C          64.3803   91.2360   12.8734 C.ar    1  UNL1        0.0112
     39 C          63.0744   90.5238   12.6799 C.ar    1  UNL1        0.0570
     40 CL         62.4498   89.7790   13.8222 Cl      1  UNL1       -0.0825
@<TRIPOS>BOND
     1    33    32    1
     2    33    31    1
     3    31     1    1
     4     1     2   ar
     5     2     3   ar
     6     3     6    1
     7     6     7   ar
     8     7     8   ar
     9     8     9   ar
    10     9    10   ar
    11    10    11   ar
    12    11    15    1
    13    15    16   ar
    14    16    17   ar
    15    17    18   ar
    16    18    20    1
    17    20    21    1
    18    21    22    1
    19    22    23    1
    20    23    24    1
    21    23    25    1
    22    18    19   ar
    23    11    12   ar
    24    12    13   ar
    25    13    14   ar
    26     3     4   ar
    27     4     5   ar
    28     5    26    1
    29    26    27   am
    30    26    28    2
    31    33    34    1
    32    34    35   ar
    33    35    36   ar
    34    36    37   ar
    35    37    38   ar
    36    38    39   ar
    37    39    40    1
    38     5     1   ar
    39    39    34   ar
    40    14     6   ar
    41    14     9   ar
    42    19    15   ar
    43    27    29    1
    44    27    30    1
@<TRIPOS>MOLECULE
*****
 40 44 0 0 0
SMALL
GASTEIGER

@<TRIPOS>ATOM
      1 C          63.7159   87.1164   13.4500 C.ar    1  UNL1        0.1512
      2 C          63.1357   87.4593   12.1099 C.ar    1  UNL1        0.0619
      3 C          62.5559   86.2073   11.5216 C.ar    1  UNL1        0.0987
      4 S          62.7778   85.0904   12.4980 S.2     1  UNL1       -0.0618
      5 C          63.4947   85.6523   13.6898 C.ar    1  UNL1        0.1178
      6 N          61.8741   86.0923   10.1905 N.ar    1  UNL1       -0.2823
      7 C          61.6850   84.8297    9.4029 C.ar    1  UNL1        0.1831
      8 N          60.9556   85.1768    8.1390 N.ar    1  UNL1       -0.2236
      9 C          60.6939   86.6538    8.1454 C.ar    1  UNL1        0.0991
     10 C          60.0120   87.5566    7.1605 C.ar    1  UNL1        0.0207
     11 C          59.8979   89.0252    7.4435 C.ar    1  UNL1        0.0046
     12 C          60.4655   89.5910    8.7115 C.ar    1  UNL1        0.0017
     13 C          61.1474   88.6882    9.6963 C.ar    1  UNL1        0.0191
     14 C          61.2615   87.2196    9.4133 C.ar    1  UNL1        0.0835
     15 C          59.2160   89.9280    6.4586 C.ar    1  UNL1        0.0397
     16 C          57.7346   90.1057    6.3043 C.ar    1  UNL1        0.1216
     17 N          57.4989   91.0992    5.2054 N.ar    1  UNL1       -0.1677
     18 N          58.8347   91.5356    4.6807 N.ar    1  UNL1       -0.2494
     19 C          59.8959   90.8117    5.4552 C.ar    1  UNL1        0.0966
     20 C          59.0682   92.5225    3.5755 C.3     1  UNL1        0.1289
     21 C          60.4642   92.8054    3.1052 C.3     1  UNL1        0.0437
     22 C          60.6874   93.6204    1.8659 C.3     1  UNL1        0.0742
     23 N          59.8981   93.3286    0.6242 N.3     1  UNL1       -0.2703
     24 C          60.0514   92.0070   -0.0687 C.3     1  UNL1        0.0897
     25 C          58.9556   94.3582    0.0753 C.3     1  UNL1        0.0897
     26 C          63.9163   84.8847   14.9077 C.2     1  UNL1        0.2518
     27 N          64.2626   85.6145   16.1716 N.am    1  UNL1       -0.3248
     28 O          63.9916   83.3873   14.8616 O.2     1  UNL1       -0.2697
     29 H          64.2132   86.5973   16.2018 H       1  UNL1        0.1453
     30 H          64.5393   85.1108   16.9709 H       1  UNL1        0.1453
     31 O          64.3975   88.0700   14.3859 O.3     1  UNL1       -0.4740
     32 C          63.0701   89.9257   15.6285 C.3     1  UNL1        0.0523
     33 C          63.9306   89.4924   14.4787 C.3     1  UNL1        0.1891
     34 C          64.3240   90.4814   13.4219 C.ar    1  UNL1        0.0278
     35 C          63.5216   90.5888   12.1591 C.ar    1  UNL1        0.0000
     36 C          63.9150   91.5778   11.1022 C.ar    1  UNL1       -0.0002
     37 C          65.1109   92.4595   11.3082 C.ar    1  UNL1        0.0008
     38 C          65.9133   92.3522   12.5708 C.ar    1  UNL1        0.0112
     39 C          65.5199   91.3631   13.6278 C.ar    1  UNL1        0.0570
     40 CL         66.3223   91.2558   14.8905 Cl      1  UNL1       -0.0825
@<TRIPOS>BOND
     1    33    32    1
     2    33    31    1
     3    31     1    1
     4     1     2   ar
     5     2     3   ar
     6     3     6    1
     7     6     7   ar
     8     7     8   ar
     9     8     9   ar
    10     9    10   ar
    11    10    11   ar
    12    11    15    1
    13    15    16   ar
    14    16    17   ar
    15    17    18   ar
    16    18    20    1
    17    20    21    1
    18    21    22    1
    19    22    23    1
    20    23    24    1
    21    23    25    1
    22    18    19   ar
    23    11    12   ar
    24    12    13   ar
    25    13    14   ar
    26     3     4   ar
    27     4     5   ar
    28     5    26    1
    29    26    27   am
    30    26    28    2
    31    33    34    1
    32    34    35   ar
    33    35    36   ar
    34    36    37   ar
    35    37    38   ar
    36    38    39   ar
    37    39    40    1
    38     5     1   ar
    39    39    34   ar
    40    14     6   ar
    41    14     9   ar
    42    19    15   ar
    43    27    29    1
    44    27    30    1
@<TRIPOS>MOLECULE
*****
 40 44 0 0 0
SMALL
GASTEIGER

@<TRIPOS>ATOM
      1 C          62.5673   83.2851   12.9691 C.ar    1  UNL1        0.1512
      2 C          62.8325   84.6961   13.4036 C.ar    1  UNL1        0.0619
      3 C          62.7049   84.7531   14.8971 C.ar    1  UNL1        0.0987
      4 S          62.3608   83.3773   15.3857 S.2     1  UNL1       -0.0618
      5 C          62.2757   82.4700   14.1941 C.ar    1  UNL1        0.1178
      6 N          62.8891   85.9718   15.7519 N.ar    1  UNL1       -0.2823
      7 C          62.4888   86.1080   17.1911 C.ar    1  UNL1        0.1831
      8 N          62.8582   87.4887   17.6462 N.ar    1  UNL1       -0.2236
      9 C          63.4868   88.2058   16.4884 C.ar    1  UNL1        0.0991
     10 C          64.0442   89.5914   16.3489 C.ar    1  UNL1        0.0207
     11 C          64.6208   90.0394   15.0386 C.ar    1  UNL1        0.0046
     12 C          64.6399   89.1019   13.8679 C.ar    1  UNL1        0.0017
     13 C          64.0824   87.7163   14.0073 C.ar    1  UNL1        0.0191
     14 C          63.5059   87.2683   15.3176 C.ar    1  UNL1        0.0835
     15 C          65.1783   91.4250   14.8991 C.ar    1  UNL1        0.0397
     16 C          65.4484   92.3838   16.0206 C.ar    1  UNL1        0.1216
     17 N          66.0006   93.6463   15.4282 N.ar    1  UNL1       -0.1677
     18 N          66.0718   93.4679   13.9405 N.ar    1  UNL1       -0.2494
     19 C          65.5635   92.0950   13.6135 C.ar    1  UNL1        0.0966
     20 C          66.5646   94.4839   12.9532 C.3     1  UNL1        0.1289
     21 C          66.1124   94.4219   11.5243 C.3     1  UNL1        0.0437
     22 C          66.6443   93.3541   10.6150 C.3     1  UNL1        0.0742
     23 N          67.7304   93.6783    9.6325 N.3     1  UNL1       -0.2703
     24 C          67.7272   94.9979    8.9192 C.3     1  UNL1        0.0897
     25 C          68.8197   92.6829    9.3633 C.3     1  UNL1        0.0897
     26 C          61.9553   81.0048   14.2226 C.2     1  UNL1        0.2518
     27 N          60.5274   80.5482   14.1720 N.am    1  UNL1       -0.3248
     28 O          63.0629   79.9964   14.3017 O.2     1  UNL1       -0.2697
     29 H          59.8005   81.2101   14.1202 H       1  UNL1        0.1453
     30 H          60.3172   79.5866   14.1907 H       1  UNL1        0.1453
     31 O          62.5896   82.7783   11.5576 O.3     1  UNL1       -0.4740
     32 C          64.3899   83.2712    9.7504 C.3     1  UNL1        0.0523
     33 C          63.1214   83.6476   10.4569 C.3     1  UNL1        0.1891
     34 C          62.3845   84.8932   10.0626 C.ar    1  UNL1        0.0278
     35 C          61.7213   85.7359   11.1114 C.ar    1  UNL1        0.0000
     36 C          60.9844   86.9816   10.7172 C.ar    1  UNL1       -0.0002
     37 C          60.9108   87.3845    9.2742 C.ar    1  UNL1        0.0008
     38 C          61.5740   86.5418    8.2255 C.ar    1  UNL1        0.0112
     39 C          62.3109   85.2961    8.6197 C.ar    1  UNL1        0.0570
     40 CL         62.9741   84.4534    7.5709 Cl      1  UNL1       -0.0825
@<TRIPOS>BOND
     1    33    32    1
     2    33    31    1
     3    31     1    1
     4     1     2   ar
     5     2     3   ar
     6     3     6    1
     7     6     7   ar
     8     7     8   ar
     9     8     9   ar
    10     9    10   ar
    11    10    11   ar
    12    11    15    1
    13    15    16   ar
    14    16    17   ar
    15    17    18   ar
    16    18    20    1
    17    20    21    1
    18    21    22    1
    19    22    23    1
    20    23    24    1
    21    23    25    1
    22    18    19   ar
    23    11    12   ar
    24    12    13   ar
    25    13    14   ar
    26     3     4   ar
    27     4     5   ar
    28     5    26    1
    29    26    27   am
    30    26    28    2
    31    33    34    1
    32    34    35   ar
    33    35    36   ar
    34    36    37   ar
    35    37    38   ar
    36    38    39   ar
    37    39    40    1
    38     5     1   ar
    39    39    34   ar
    40    14     6   ar
    41    14     9   ar
    42    19    15   ar
    43    27    29    1
    44    27    30    1
@<TRIPOS>MOLECULE
*****
 40 44 0 0 0
SMALL
GASTEIGER

@<TRIPOS>ATOM
      1 C          60.3807   88.8197    9.1559 C.ar    1  UNL1        0.1512
      2 C          59.9513   90.0441    8.4032 C.ar    1  UNL1        0.0619
      3 C          59.5666   89.6242    7.0156 C.ar    1  UNL1        0.0987
      4 S          59.7582   88.1402    6.9105 S.2     1  UNL1       -0.0618
      5 C          60.2613   87.6430    8.2333 C.ar    1  UNL1        0.1178
      6 N          59.0764   90.5293    5.9245 N.ar    1  UNL1       -0.2823
      7 C          57.6533   90.9452    5.6968 C.ar    1  UNL1        0.1831
      8 N          57.6206   91.8503    4.5011 N.ar    1  UNL1       -0.2236
      9 C          59.0235   91.9938    3.9898 C.ar    1  UNL1        0.0991
     10 C          59.5978   92.7623    2.8369 C.ar    1  UNL1        0.0207
     11 C          61.0719   92.7145    2.5636 C.ar    1  UNL1        0.0046
     12 C          61.9717   91.8980    3.4433 C.ar    1  UNL1        0.0017
     13 C          61.3973   91.1294    4.5963 C.ar    1  UNL1        0.0191
     14 C          59.9232   91.1773    4.8695 C.ar    1  UNL1        0.0835
     15 C          61.6464   93.4831    1.4106 C.ar    1  UNL1        0.0397
     16 C          63.0905   93.5184    1.0066 C.ar    1  UNL1        0.1216
     17 N          63.2141   94.4084   -0.1945 N.ar    1  UNL1       -0.1677
     18 N          61.8464   94.9232   -0.5328 N.ar    1  UNL1       -0.2494
     19 C          60.8775   94.3512    0.4592 C.ar    1  UNL1        0.0966
     20 C          61.5072   95.8475   -1.6644 C.3     1  UNL1        0.1289
     21 C          61.6309   95.3741   -3.0823 C.3     1  UNL1        0.0437
     22 C          60.9067   94.1377   -3.5261 C.3     1  UNL1        0.0742
     23 N          59.4306   94.0087   -3.2927 N.3     1  UNL1       -0.2703
     24 C          58.4838   94.9895   -3.9186 C.3     1  UNL1        0.0897
     25 C          58.9013   92.8990   -2.4336 C.3     1  UNL1        0.0897
     26 C          60.5878   86.2190    8.5737 C.2     1  UNL1        0.2518
     27 N          60.6255   85.1793    7.4933 N.am    1  UNL1       -0.3248
     28 O          60.8765   85.8349    9.9947 O.2     1  UNL1       -0.2697
     29 H          60.4361   85.4314    6.5606 H       1  UNL1        0.1453
     30 H          60.8398   84.2447    7.7167 H       1  UNL1        0.1453
     31 O          60.8474   88.7791   10.5808 O.3     1  UNL1       -0.4740
     32 C          62.8933   90.3055   10.0962 C.3     1  UNL1        0.0523
     33 C          62.2264   89.2536   10.9321 C.3     1  UNL1        0.1891
     34 C          62.9383   88.6762   12.1194 C.ar    1  UNL1        0.0278
     35 C          63.0134   87.1888   12.2986 C.ar    1  UNL1        0.0000
     36 C          63.7254   86.6114   13.4858 C.ar    1  UNL1       -0.0002
     37 C          64.3623   87.5213   14.4940 C.ar    1  UNL1        0.0008
     38 C          64.2872   89.0086   14.3149 C.ar    1  UNL1        0.0112
     39 C          63.5752   89.5861   13.1276 C.ar    1  UNL1        0.0570
     40 CL         63.5001   91.0734   12.9485 Cl      1  UNL1       -0.0825
@<TRIPOS>BOND
     1    33    32    1
     2    33    31    1
     3    31     1    1
     4     1     2   ar
     5     2     3   ar
     6     3     6    1
     7     6     7   ar
     8     7     8   ar
     9     8     9   ar
    10     9    10   ar
    11    10    11   ar
    12    11    15    1
    13    15    16   ar
    14    16    17   ar
    15    17    18   ar
    16    18    20    1
    17    20    21    1
    18    21    22    1
    19    22    23    1
    20    23    24    1
    21    23    25    1
    22    18    19   ar
    23    11    12   ar
    24    12    13   ar
    25    13    14   ar
    26     3     4   ar
    27     4     5   ar
    28     5    26    1
    29    26    27   am
    30    26    28    2
    31    33    34    1
    32    34    35   ar
    33    35    36   ar
    34    36    37   ar
    35    37    38   ar
    36    38    39   ar
    37    39    40    1
    38     5     1   ar
    39    39    34   ar
    40    14     6   ar
    41    14     9   ar
    42    19    15   ar
    43    27    29    1
    44    27    30    1
@<TRIPOS>MOLECULE
*****
 40 44 0 0 0
SMALL
GASTEIGER

@<TRIPOS>ATOM
      1 C          60.3186   91.3273    4.9840 C.ar    1  UNL1        0.1512
      2 C          60.9137   90.3156    5.9180 C.ar    1  UNL1        0.0619
      3 C          59.7895   89.5444    6.5436 C.ar    1  UNL1        0.0987
      4 S          58.4995   90.0794    5.9961 S.2     1  UNL1       -0.0618
      5 C          58.8265   91.1812    5.0323 C.ar    1  UNL1        0.1178
      6 N          59.9305   88.4333    7.5414 N.ar    1  UNL1       -0.2823
      7 C          59.2208   87.1126    7.4963 C.ar    1  UNL1        0.1831
      8 N          59.6576   86.3109    8.6865 N.ar    1  UNL1       -0.2236
      9 C          60.6372   87.1362    9.4671 C.ar    1  UNL1        0.0991
     10 C          61.3974   86.8627   10.7309 C.ar    1  UNL1        0.0207
     11 C          62.3263   87.9010   11.2869 C.ar    1  UNL1        0.0046
     12 C          62.4949   89.2127   10.5792 C.ar    1  UNL1        0.0017
     13 C          61.7347   89.4862    9.3154 C.ar    1  UNL1        0.0191
     14 C          60.8058   88.4479    8.7594 C.ar    1  UNL1        0.0835
     15 C          63.0866   87.6275   12.5508 C.ar    1  UNL1        0.0397
     16 C          63.7397   88.6552   13.4267 C.ar    1  UNL1        0.1216
     17 N          64.3840   87.9412   14.5778 N.ar    1  UNL1       -0.1677
     18 N          64.1290   86.4722   14.4134 N.ar    1  UNL1       -0.2494
     19 C          63.3271   86.2783   13.1606 C.ar    1  UNL1        0.0966
     20 C          64.5941   85.3875   15.3392 C.3     1  UNL1        0.1289
     21 C          64.4835   83.9499   14.9255 C.3     1  UNL1        0.0437
     22 C          63.1871   83.2164   15.1020 C.3     1  UNL1        0.0742
     23 N          62.6384   82.3830   13.9819 N.3     1  UNL1       -0.2703
     24 C          63.1541   82.5700   12.5857 C.3     1  UNL1        0.0897
     25 C          61.5743   81.3627   14.2579 C.3     1  UNL1        0.0897
     26 C          57.8353   91.9943    4.2534 C.2     1  UNL1        0.2518
     27 N          58.1997   92.5239    2.8981 N.am    1  UNL1       -0.3248
     28 O          56.4798   92.2777    4.8298 O.2     1  UNL1       -0.2697
     29 H          59.0893   92.3379    2.5198 H       1  UNL1        0.1453
     30 H          57.5492   93.0576    2.3870 H       1  UNL1        0.1453
     31 O          61.0815   92.3119    4.1484 O.3     1  UNL1       -0.4740
     32 C          63.0299   90.7502    3.4310 C.3     1  UNL1        0.0523
     33 C          62.0368   91.8244    3.0997 C.3     1  UNL1        0.1891
     34 C          61.9988   92.4110    1.7197 C.ar    1  UNL1        0.0278
     35 C          60.9667   91.9465    0.7354 C.ar    1  UNL1        0.0000
     36 C          60.9288   92.5331   -0.6446 C.ar    1  UNL1       -0.0002
     37 C          61.9230   93.5843   -1.0403 C.ar    1  UNL1        0.0008
     38 C          62.9551   94.0489   -0.0560 C.ar    1  UNL1        0.0112
     39 C          62.9930   93.4622    1.3241 C.ar    1  UNL1        0.0570
     40 CL         64.0251   93.9268    2.3084 Cl      1  UNL1       -0.0825
@<TRIPOS>BOND
     1    33    32    1
     2    33    31    1
     3    31     1    1
     4     1     2   ar
     5     2     3   ar
     6     3     6    1
     7     6     7   ar
     8     7     8   ar
     9     8     9   ar
    10     9    10   ar
    11    10    11   ar
    12    11    15    1
    13    15    16   ar
    14    16    17   ar
    15    17    18   ar
    16    18    20    1
    17    20    21    1
    18    21    22    1
    19    22    23    1
    20    23    24    1
    21    23    25    1
    22    18    19   ar
    23    11    12   ar
    24    12    13   ar
    25    13    14   ar
    26     3     4   ar
    27     4     5   ar
    28     5    26    1
    29    26    27   am
    30    26    28    2
    31    33    34    1
    32    34    35   ar
    33    35    36   ar
    34    36    37   ar
    35    37    38   ar
    36    38    39   ar
    37    39    40    1
    38     5     1   ar
    39    39    34   ar
    40    14     6   ar
    41    14     9   ar
    42    19    15   ar
    43    27    29    1
    44    27    30    1
@<TRIPOS>MOLECULE
*****
 40 44 0 0 0
SMALL
GASTEIGER

@<TRIPOS>ATOM
      1 C          59.4379   91.2258    5.1824 C.ar    1  UNL1        0.1512
      2 C          60.4380   90.5399    6.0651 C.ar    1  UNL1        0.0619
      3 C          59.6901   89.6272    6.9912 C.ar    1  UNL1        0.0987
      4 S          58.2276   89.7491    6.6808 S.2     1  UNL1       -0.0618
      5 C          58.0717   90.7370    5.5629 C.ar    1  UNL1        0.1178
      6 N          60.2978   88.7472    8.0430 N.ar    1  UNL1       -0.2823
      7 C          60.1853   87.2532    8.1154 C.ar    1  UNL1        0.1831
      8 N          60.9427   86.7895    9.3242 N.ar    1  UNL1       -0.2236
      9 C          61.5233   87.9968    9.9989 C.ar    1  UNL1        0.0991
     10 C          62.3635   88.1508   11.2319 C.ar    1  UNL1        0.0207
     11 C          62.8050   89.5147   11.6731 C.ar    1  UNL1        0.0046
     12 C          62.4064   90.7247   10.8813 C.ar    1  UNL1        0.0017
     13 C          61.5663   90.5708    9.6482 C.ar    1  UNL1        0.0191
     14 C          61.1247   89.2068    9.2070 C.ar    1  UNL1        0.0835
     15 C          63.6452   89.6687   12.9062 C.ar    1  UNL1        0.0397
     16 C          63.9838   88.5825   13.8837 C.ar    1  UNL1        0.1216
     17 N          64.8421   89.1784   14.9599 N.ar    1  UNL1       -0.1677
     18 N          65.0339   90.6330   14.6475 N.ar    1  UNL1       -0.2494
     19 C          64.2942   90.9359   13.3783 C.ar    1  UNL1        0.0966
     20 C          65.8264   91.6125   15.4615 C.3     1  UNL1        0.1289
     21 C          66.9282   92.4027   14.8199 C.3     1  UNL1        0.0437
     22 C          66.6051   93.6384   14.0334 C.3     1  UNL1        0.0742
     23 N          66.6943   93.6191   12.5362 N.3     1  UNL1       -0.2703
     24 C          67.2662   92.4231   11.8342 C.3     1  UNL1        0.0897
     25 C          66.2117   94.7957   11.7409 C.3     1  UNL1        0.0897
     26 C          56.7770   91.1616    4.9356 C.2     1  UNL1        0.2518
     27 N          56.7856   92.0038    3.6944 N.am    1  UNL1       -0.3248
     28 O          55.4736   90.7441    5.5497 O.2     1  UNL1       -0.2697
     29 H          57.6410   92.2778    3.2914 H       1  UNL1        0.1453
     30 H          55.9358   92.2824    3.2827 H       1  UNL1        0.1453
     31 O          59.7492   92.2249    4.1079 O.3     1  UNL1       -0.4740
     32 C          62.1490   91.2810    3.7920 C.3     1  UNL1        0.0523
     33 C          60.9817   92.0639    3.2682 C.3     1  UNL1        0.1891
     34 C          61.0468   92.6857    1.9047 C.ar    1  UNL1        0.0278
     35 C          59.8187   92.7387    1.0451 C.ar    1  UNL1        0.0000
     36 C          59.8838   93.3605   -0.3184 C.ar    1  UNL1       -0.0002
     37 C          61.1770   93.9294   -0.8222 C.ar    1  UNL1        0.0008
     38 C          62.4051   93.8765    0.0373 C.ar    1  UNL1        0.0112
     39 C          62.3400   93.2546    1.4009 C.ar    1  UNL1        0.0570
     40 CL         63.5681   93.2017    2.2604 Cl      1  UNL1       -0.0825
@<TRIPOS>BOND
     1    33    32    1
     2    33    31    1
     3    31     1    1
     4     1     2   ar
     5     2     3   ar
     6     3     6    1
     7     6     7   ar
     8     7     8   ar
     9     8     9   ar
    10     9    10   ar
    11    10    11   ar
    12    11    15    1
    13    15    16   ar
    14    16    17   ar
    15    17    18   ar
    16    18    20    1
    17    20    21    1
    18    21    22    1
    19    22    23    1
    20    23    24    1
    21    23    25    1
    22    18    19   ar
    23    11    12   ar
    24    12    13   ar
    25    13    14   ar
    26     3     4   ar
    27     4     5   ar
    28     5    26    1
    29    26    27   am
    30    26    28    2
    31    33    34    1
    32    34    35   ar
    33    35    36   ar
    34    36    37   ar
    35    37    38   ar
    36    38    39   ar
    37    39    40    1
    38     5     1   ar
    39    39    34   ar
    40    14     6   ar
    41    14     9   ar
    42    19    15   ar
    43    27    29    1
    44    27    30    1
@<TRIPOS>MOLECULE
*****
 40 44 0 0 0
SMALL
GASTEIGER

@<TRIPOS>ATOM
      1 C          65.4799   92.2287   13.5837 C.ar    1  UNL1        0.1512
      2 C          64.3355   91.3733   14.0404 C.ar    1  UNL1        0.0619
      3 C          64.8866   90.2963   14.9271 C.ar    1  UNL1        0.0987
      4 S          66.3718   90.4860   15.0184 S.2     1  UNL1       -0.0618
      5 C          66.7384   91.6802   14.1882 C.ar    1  UNL1        0.1178
      6 N          64.0921   89.2188   15.6037 N.ar    1  UNL1       -0.2823
      7 C          63.3544   89.3512   16.9030 C.ar    1  UNL1        0.1831
      8 N          62.7023   88.0339   17.2021 N.ar    1  UNL1       -0.2236
      9 C          63.0370   87.0873   16.0876 C.ar    1  UNL1        0.0991
     10 C          62.6706   85.6532   15.8447 C.ar    1  UNL1        0.0207
     11 C          63.1631   84.9515   14.6139 C.ar    1  UNL1        0.0046
     12 C          64.0221   85.6838   13.6261 C.ar    1  UNL1        0.0017
     13 C          64.3885   87.1179   13.8690 C.ar    1  UNL1        0.0191
     14 C          63.8960   87.8196   15.0997 C.ar    1  UNL1        0.0835
     15 C          62.7967   83.5173   14.3710 C.ar    1  UNL1        0.0397
     16 C          62.0972   82.6098   15.3391 C.ar    1  UNL1        0.1216
     17 N          61.9337   81.2705   14.6837 N.ar    1  UNL1       -0.1677
     18 N          62.5321   81.3503   13.3104 N.ar    1  UNL1       -0.2494
     19 C          63.0655   82.7388   13.1172 C.ar    1  UNL1        0.0966
     20 C          62.5874   80.2369   12.3068 C.3     1  UNL1        0.1289
     21 C          63.3032   80.4367   11.0038 C.3     1  UNL1        0.0437
     22 C          62.9414   81.5926   10.1189 C.3     1  UNL1        0.0742
     23 N          63.7834   82.8340   10.1250 N.3     1  UNL1       -0.2703
     24 C          64.9904   82.9173   11.0118 C.3     1  UNL1        0.0897
     25 C          63.4186   83.9920    9.2443 C.3     1  UNL1        0.0897
     26 C          68.1210   92.2296   13.9961 C.2     1  UNL1        0.2518
     27 N          69.0229   91.6425   12.9511 N.am    1  UNL1       -0.3248
     28 O          68.6016   93.3661   14.8490 O.2     1  UNL1       -0.2697
     29 H          68.7074   90.8966   12.3913 H       1  UNL1        0.1453
     30 H          69.9302   92.0031   12.8251 H       1  UNL1        0.1453
     31 O          65.3829   93.4227   12.6811 O.3     1  UNL1       -0.4740
     32 C          64.6282   92.0690   10.5959 C.3     1  UNL1        0.0523
     33 C          65.3550   93.2376   11.1928 C.3     1  UNL1        0.1891
     34 C          66.0539   94.2209   10.3015 C.ar    1  UNL1        0.0278
     35 C          65.5181   95.6145   10.1567 C.ar    1  UNL1        0.0000
     36 C          66.2171   96.5979    9.2654 C.ar    1  UNL1       -0.0002
     37 C          67.4518   96.1877    8.5189 C.ar    1  UNL1        0.0008
     38 C          67.9876   94.7943    8.6637 C.ar    1  UNL1        0.0112
     39 C          67.2887   93.8108    9.5551 C.ar    1  UNL1        0.0570
     40 CL         67.8244   92.4173    9.6999 Cl      1  UNL1       -0.0825
@<TRIPOS>BOND
     1    33    32    1
     2    33    31    1
     3    31     1    1
     4     1     2   ar
     5     2     3   ar
     6     3     6    1
     7     6     7   ar
     8     7     8   ar
     9     8     9   ar
    10     9    10   ar
    11    10    11   ar
    12    11    15    1
    13    15    16   ar
    14    16    17   ar
    15    17    18   ar
    16    18    20    1
    17    20    21    1
    18    21    22    1
    19    22    23    1
    20    23    24    1
    21    23    25    1
    22    18    19   ar
    23    11    12   ar
    24    12    13   ar
    25    13    14   ar
    26     3     4   ar
    27     4     5   ar
    28     5    26    1
    29    26    27   am
    30    26    28    2
    31    33    34    1
    32    34    35   ar
    33    35    36   ar
    34    36    37   ar
    35    37    38   ar
    36    38    39   ar
    37    39    40    1
    38     5     1   ar
    39    39    34   ar
    40    14     6   ar
    41    14     9   ar
    42    19    15   ar
    43    27    29    1
    44    27    30    1
@<TRIPOS>MOLECULE
*****
 40 44 0 0 0
SMALL
GASTEIGER

@<TRIPOS>ATOM
      1 C          62.2143   84.6427    9.2606 C.ar    1  UNL1        0.1512
      2 C          62.1703   85.6983   10.3253 C.ar    1  UNL1        0.0619
      3 C          61.6988   86.9745    9.6937 C.ar    1  UNL1        0.0987
      4 S          61.4513   86.7077    8.2385 S.2     1  UNL1       -0.0618
      5 C          61.7699   85.2665    7.9708 C.ar    1  UNL1        0.1178
      6 N          61.5082   88.2871   10.3942 N.ar    1  UNL1       -0.2823
      7 C          60.4684   89.3178   10.0679 C.ar    1  UNL1        0.1831
      8 N          60.6415   90.4671   11.0161 N.ar    1  UNL1       -0.2236
      9 C          61.7883   90.1468   11.9284 C.ar    1  UNL1        0.0991
     10 C          62.4140   90.9079   13.0594 C.ar    1  UNL1        0.0207
     11 C          63.5753   90.3216   13.8060 C.ar    1  UNL1        0.0046
     12 C          64.1110   88.9743   13.4217 C.ar    1  UNL1        0.0017
     13 C          63.4853   88.2132   12.2907 C.ar    1  UNL1        0.0191
     14 C          62.3240   88.7994   11.5440 C.ar    1  UNL1        0.0835
     15 C          64.2011   91.0827   14.9371 C.ar    1  UNL1        0.0397
     16 C          63.5318   91.4534   16.2273 C.ar    1  UNL1        0.1216
     17 N          64.5231   92.2065   17.0641 N.ar    1  UNL1       -0.1677
     18 N          65.8051   92.3013   16.2910 N.ar    1  UNL1       -0.2494
     19 C          65.6060   91.6068   14.9765 C.ar    1  UNL1        0.0966
     20 C          67.0648   92.9727   16.7516 C.3     1  UNL1        0.1289
     21 C          68.0138   93.5566   15.7474 C.3     1  UNL1        0.0437
     22 C          68.6499   92.6737   14.7150 C.3     1  UNL1        0.0742
     23 N          68.0408   92.5577   13.3492 N.3     1  UNL1       -0.2703
     24 C          68.5558   91.5325   12.3828 C.3     1  UNL1        0.0897
     25 C          66.9168   93.4670   12.9496 C.3     1  UNL1        0.0897
     26 C          61.6628   84.5713    6.6459 C.2     1  UNL1        0.2518
     27 N          62.8725   84.4376    5.7692 N.am    1  UNL1       -0.3248
     28 O          60.3461   84.0097    6.1979 O.2     1  UNL1       -0.2697
     29 H          63.7368   84.8062    6.0632 H       1  UNL1        0.1453
     30 H          62.8023   83.9813    4.8996 H       1  UNL1        0.1453
     31 O          62.6297   83.2142    9.4519 O.3     1  UNL1       -0.4740
     32 C          65.0016   83.1293   10.5088 C.3     1  UNL1        0.0523
     33 C          63.5317   82.8415   10.5909 C.3     1  UNL1        0.1891
     34 C          62.9639   82.1810   11.8121 C.ar    1  UNL1        0.0278
     35 C          62.7264   80.7000   11.8219 C.ar    1  UNL1        0.0000
     36 C          62.1586   80.0395   13.0431 C.ar    1  UNL1       -0.0002
     37 C          61.8282   80.8601   14.2545 C.ar    1  UNL1        0.0008
     38 C          62.0657   82.3411   14.2447 C.ar    1  UNL1        0.0112
     39 C          62.6335   83.0016   13.0235 C.ar    1  UNL1        0.0570
     40 CL         62.8710   84.4826   13.0137 Cl      1  UNL1       -0.0825
@<TRIPOS>BOND
     1    33    32    1
     2    33    31    1
     3    31     1    1
     4     1     2   ar
     5     2     3   ar
     6     3     6    1
     7     6     7   ar
     8     7     8   ar
     9     8     9   ar
    10     9    10   ar
    11    10    11   ar
    12    11    15    1
    13    15    16   ar
    14    16    17   ar
    15    17    18   ar
    16    18    20    1
    17    20    21    1
    18    21    22    1
    19    22    23    1
    20    23    24    1
    21    23    25    1
    22    18    19   ar
    23    11    12   ar
    24    12    13   ar
    25    13    14   ar
    26     3     4   ar
    27     4     5   ar
    28     5    26    1
    29    26    27   am
    30    26    28    2
    31    33    34    1
    32    34    35   ar
    33    35    36   ar
    34    36    37   ar
    35    37    38   ar
    36    38    39   ar
    37    39    40    1
    38     5     1   ar
    39    39    34   ar
    40    14     6   ar
    41    14     9   ar
    42    19    15   ar
    43    27    29    1
    44    27    30    1
