@<TRIPOS>MOLECULE
*****
 46 52 0 0 0
SMALL
GASTEIGER

@<TRIPOS>ATOM
      1 C          62.1497   86.9856   10.4979 C.2     1  UNL1        0.0770
      2 N          62.7164   86.1907   11.6368 N.2     1  UNL1       -0.2460
      3 C          63.2953   87.1532   12.6311 C.2     1  UNL1        0.0773
      4 C          63.9856   86.9436   13.9461 C.2     1  UNL1        0.0182
      5 C          64.4670   88.1238   14.7369 C.2     1  UNL1       -0.0062
      6 C          64.2581   89.5136   14.2125 C.2     1  UNL1       -0.0322
      7 C          63.5677   89.7231   12.8975 C.3     1  UNL1        0.0500
      8 C          63.0863   88.5429   12.1067 C.2     1  UNL1       -0.0029
      9 C          62.3783   88.4394   10.7884 C.2     1  UNL1       -0.0057
     10 C          62.3726   84.2674    6.0751 C.3     1  UNL1        0.0310
     11 C          61.5846   85.0661    7.0707 C.ar    1  UNL1       -0.0221
     12 C          60.1201   85.3043    6.8504 C.ar    1  UNL1       -0.0085
     13 C          59.3322   86.1030    7.8460 C.ar    1  UNL1       -0.0221
     14 C          57.8676   86.3413    7.6258 C.3     1  UNL1        0.0310
     15 C          60.0087   86.6635    9.0619 C.ar    1  UNL1       -0.0028
     16 C          61.4732   86.4252    9.2821 C.ar    1  UNL1        0.0167
     17 C          62.2611   85.6265    8.2865 C.ar    1  UNL1       -0.0028
     18 C          64.7395   90.6938   15.0033 C.3     1  UNL1        0.0845
     19 C          65.3470   91.2775   13.7623 C.3     1  UNL1        0.0132
     20 C          64.1321   90.1102   16.2444 C.3     1  UNL1        0.0132
     21 C          65.2210   91.8740   15.7941 C.2     1  UNL1        0.2281
     22 O          64.2869   92.5801   16.7317 O.2     1  UNL1       -0.2746
     23 N          67.7886   92.2933   15.1639 N.am    1  UNL1       -0.2809
     24 C          68.2240   93.3605   15.8789 C.3     1  UNL1        0.0933
     25 C          68.5334   94.0027   16.2911 C.3     1  UNL1        0.0200
     26 C          69.4674   93.2966   15.3535 C.3     1  UNL1        0.0034
     27 C          68.9860   92.1164   14.5628 C.3     1  UNL1        0.0199
     28 C          67.5705   91.6422   14.7096 C.3     1  UNL1        0.0753
     29 C          66.6365   92.3482   15.6472 C.3     1  UNL1        0.0199
     30 C          67.1179   93.5285   16.4380 C.3     1  UNL1        0.0034
     31 C          61.9706   89.5879    9.9140 C.3     1  UNL1        0.0393
     32 C          62.8966   90.7530    9.7259 C.3     1  UNL1        0.0062
     33 C          60.6370   89.5716    9.2278 C.3     1  UNL1        0.0730
     34 N          60.5076   90.0930    7.8272 N.3     1  UNL1       -0.2969
     35 H          61.4071   89.9391    7.3715 H       1  UNL1        0.1233
     36 C          59.4578   89.5344    6.9130 C.3     1  UNL1        0.0730
     37 C          58.7815   90.4261    5.9143 C.3     1  UNL1        0.0395
     38 C          59.5969   91.1630    4.8935 C.2     1  UNL1       -0.0368
     39 C          58.9552   92.2147    4.0379 C.2     1  UNL1       -0.0065
     40 C          59.7706   92.9516    3.0172 C.2     1  UNL1        0.0197
     41 C          61.2279   92.6368    2.8519 C.2     1  UNL1        0.0969
     42 N          62.2774   93.1935    1.9363 N.2     1  UNL1       -0.2228
     43 C          63.5679   92.4858    2.2259 C.2     1  UNL1        0.1986
     44 N          63.3159   91.4918    3.3205 N.2     1  UNL1       -0.2265
     45 C          61.8696   91.5850    3.7074 C.2     1  UNL1        0.0824
     46 C          61.0542   90.8481    4.7282 C.3     1  UNL1        0.0694
@<TRIPOS>BOND
     1    10    11    1
     2    11    12   ar
     3    12    13   ar
     4    13    14    1
     5    13    15   ar
     6    15    16   ar
     7    16     1    1
     8     1     2    2
     9     2     3    1
    10     3     4    2
    11     4     5    1
    12     5     6    2
    13     6    18    1
    14    18    19    1
    15    18    20    1
    16    18    21    1
    17    21    22    2
    18    21    23   am
    19    23    24    1
    20    24    25    1
    21    25    26    1
    22    26    27    1
    23    27    28    1
    24    28    29    1
    25    29    30    1
    26     6     7    1
    27     7     8    1
    28     8     9    2
    29     9    31    1
    30    31    32    1
    31    31    33    1
    32    33    34    1
    33    34    36    1
    34    36    37    1
    35    37    38    1
    36    38    39    2
    37    39    40    1
    38    40    41    2
    39    41    42    1
    40    42    43    2
    41    43    44    1
    42    44    45    2
    43    45    46    1
    44    16    17   ar
    45    17    11   ar
    46     9     1    1
    47    46    38    1
    48     8     3    1
    49    45    41    1
    50    28    23    1
    51    30    25    1
    52    34    35    1
@<TRIPOS>MOLECULE
*****
 46 52 0 0 0
SMALL
GASTEIGER

@<TRIPOS>ATOM
      1 C          62.1783   87.0535   10.6660 C.2     1  UNL1        0.0770
      2 N          62.7039   86.2360   11.8086 N.2     1  UNL1       -0.2460
      3 C          63.3053   87.1747   12.8121 C.2     1  UNL1        0.0773
      4 C          63.9732   86.9374   14.1341 C.2     1  UNL1        0.0182
      5 C          64.4872   88.0977   14.9336 C.2     1  UNL1       -0.0062
      6 C          64.3334   89.4954   14.4112 C.2     1  UNL1       -0.0322
      7 C          63.6655   89.7327   13.0893 C.3     1  UNL1        0.0500
      8 C          63.1515   88.5724   12.2897 C.2     1  UNL1       -0.0029
      9 C          62.4550   88.4974   10.9634 C.2     1  UNL1       -0.0057
     10 C          62.3412   84.2992    6.2628 C.3     1  UNL1        0.0310
     11 C          61.5773   85.1435    7.2395 C.ar    1  UNL1       -0.0221
     12 C          60.1312   85.4548    6.9913 C.ar    1  UNL1       -0.0085
     13 C          59.3674   86.2990    7.9680 C.ar    1  UNL1       -0.0221
     14 C          57.9212   86.6103    7.7198 C.3     1  UNL1        0.0310
     15 C          60.0498   86.8319    9.1929 C.ar    1  UNL1       -0.0028
     16 C          61.4959   86.5206    9.4411 C.ar    1  UNL1        0.0167
     17 C          62.2597   85.6764    8.4644 C.ar    1  UNL1       -0.0028
     18 C          64.8475   90.6557   15.2109 C.3     1  UNL1        0.0845
     19 C          65.9700   90.8330   14.2319 C.3     1  UNL1        0.0132
     20 C          63.7249   90.4785   16.1899 C.3     1  UNL1        0.0132
     21 C          65.3616   91.8160   16.0105 C.2     1  UNL1        0.2281
     22 O          64.4901   92.4546   17.0511 O.2     1  UNL1       -0.2746
     23 N          67.8563   92.3372   15.1918 N.am    1  UNL1       -0.2809
     24 C          68.3212   93.3864   15.9148 C.3     1  UNL1        0.0933
     25 C          68.6467   94.0200   16.3281 C.3     1  UNL1        0.0200
     26 C          69.5181   93.3814   15.2875 C.3     1  UNL1        0.0034
     27 C          69.0040   92.2211   14.4879 C.3     1  UNL1        0.0199
     28 C          67.6185   91.6993   14.7289 C.3     1  UNL1        0.0753
     29 C          66.7471   92.3378   15.7695 C.3     1  UNL1        0.0199
     30 C          67.2612   93.4982   16.5691 C.3     1  UNL1        0.0034
     31 C          62.0978   89.6620   10.0881 C.3     1  UNL1        0.0393
     32 C          60.6646   89.9157    9.7250 C.3     1  UNL1        0.0062
     33 C          63.1737   90.5730    9.5758 C.3     1  UNL1        0.0730
     34 N          63.3695   91.9251   10.1951 N.3     1  UNL1       -0.2969
     35 H          62.4823   92.4206   10.1070 H       1  UNL1        0.1233
     36 C          63.7883   92.0388   11.6309 C.3     1  UNL1        0.0730
     37 C          65.1339   92.6039   11.9772 C.3     1  UNL1        0.0395
     38 C          65.9526   93.2904   10.9244 C.2     1  UNL1       -0.0368
     39 C          67.1309   92.5901   10.3154 C.2     1  UNL1       -0.0065
     40 C          67.9496   93.2767    9.2626 C.2     1  UNL1        0.0197
     41 C          67.5899   94.6636    8.8188 C.2     1  UNL1        0.0969
     42 N          68.2061   95.5857    7.8088 N.2     1  UNL1       -0.2228
     43 C          67.4085   96.8560    7.7936 C.2     1  UNL1        0.1986
     44 N          66.2994   96.7189    8.7941 N.2     1  UNL1       -0.2265
     45 C          66.4116   95.3639    9.4278 C.2     1  UNL1        0.0824
     46 C          65.5929   94.6774   10.4806 C.3     1  UNL1        0.0694
@<TRIPOS>BOND
     1    10    11    1
     2    11    12   ar
     3    12    13   ar
     4    13    14    1
     5    13    15   ar
     6    15    16   ar
     7    16     1    1
     8     1     2    2
     9     2     3    1
    10     3     4    2
    11     4     5    1
    12     5     6    2
    13     6    18    1
    14    18    19    1
    15    18    20    1
    16    18    21    1
    17    21    22    2
    18    21    23   am
    19    23    24    1
    20    24    25    1
    21    25    26    1
    22    26    27    1
    23    27    28    1
    24    28    29    1
    25    29    30    1
    26     6     7    1
    27     7     8    1
    28     8     9    2
    29     9    31    1
    30    31    32    1
    31    31    33    1
    32    33    34    1
    33    34    36    1
    34    36    37    1
    35    37    38    1
    36    38    39    2
    37    39    40    1
    38    40    41    2
    39    41    42    1
    40    42    43    2
    41    43    44    1
    42    44    45    2
    43    45    46    1
    44    16    17   ar
    45    17    11   ar
    46     9     1    1
    47    46    38    1
    48     8     3    1
    49    45    41    1
    50    28    23    1
    51    30    25    1
    52    34    35    1
@<TRIPOS>MOLECULE
*****
 46 52 0 0 0
SMALL
GASTEIGER

@<TRIPOS>ATOM
      1 C          62.7085   83.6802   13.9710 C.2     1  UNL1        0.0770
      2 N          63.0312   84.1321   15.3644 N.2     1  UNL1       -0.2460
      3 C          63.3807   85.5898   15.3097 C.2     1  UNL1        0.0773
      4 C          63.7824   86.5663   16.3751 C.2     1  UNL1        0.0182
      5 C          64.0773   87.9918   16.0132 C.2     1  UNL1       -0.0062
      6 C          63.9706   88.4407   14.5859 C.2     1  UNL1       -0.0322
      7 C          63.5690   87.4642   13.5206 C.3     1  UNL1        0.0500
      8 C          63.2740   86.0388   13.8824 C.2     1  UNL1       -0.0029
      9 C          62.8585   84.8586   13.0551 C.2     1  UNL1       -0.0057
     10 C          63.3012   79.5468   10.8785 C.3     1  UNL1        0.0310
     11 C          62.6026   80.2266   12.0186 C.ar    1  UNL1       -0.0221
     12 C          61.5019   79.5197   12.7525 C.ar    1  UNL1       -0.0085
     13 C          60.8033   80.1996   13.8925 C.ar    1  UNL1       -0.0221
     14 C          59.7025   79.4927   14.6265 C.3     1  UNL1        0.0310
     15 C          61.2055   81.5864   14.2987 C.ar    1  UNL1       -0.0028
     16 C          62.3063   82.2934   13.5648 C.ar    1  UNL1        0.0167
     17 C          63.0048   81.6135   12.4248 C.ar    1  UNL1       -0.0028
     18 C          64.2656   89.8663   14.2241 C.3     1  UNL1        0.0845
     19 C          64.4819   89.4592   12.7967 C.3     1  UNL1        0.0132
     20 C          64.0494   90.2734   15.6515 C.3     1  UNL1        0.0132
     21 C          64.5606   91.2918   13.8622 C.2     1  UNL1        0.2281
     22 O          63.5965   92.0646   13.0116 O.2     1  UNL1       -0.2746
     23 N          66.9021   91.9551   14.9772 N.am    1  UNL1       -0.2809
     24 C          67.1688   93.2440   14.6499 C.3     1  UNL1        0.0933
     25 C          67.3736   94.0228   14.4776 C.3     1  UNL1        0.0200
     26 C          68.3376   93.2500   15.3282 C.3     1  UNL1        0.0034
     27 C          68.0427   91.8245   15.6901 C.3     1  UNL1        0.0199
     28 C          66.7837   91.1718   15.2014 C.3     1  UNL1        0.0753
     29 C          65.8196   91.9445   14.3509 C.3     1  UNL1        0.0199
     30 C          66.1145   93.3701   13.9890 C.3     1  UNL1        0.0034
     31 C          62.6328   84.8570   11.5722 C.3     1  UNL1        0.0393
     32 C          61.3421   85.3745   11.0095 C.3     1  UNL1        0.0062
     33 C          63.6975   84.3381   10.6520 C.3     1  UNL1        0.0730
     34 N          63.3404   83.9030    9.2616 N.3     1  UNL1       -0.2969
     35 H          62.4042   83.5009    9.3102 H       1  UNL1        0.1233
     36 C          63.3247   84.9028    8.1436 C.3     1  UNL1        0.0730
     37 C          62.0181   85.4107    7.6098 C.3     1  UNL1        0.0395
     38 C          61.3895   86.6352    8.2060 C.2     1  UNL1       -0.0368
     39 C          59.9715   86.9899    7.8694 C.2     1  UNL1       -0.0065
     40 C          59.3428   88.2144    8.4656 C.2     1  UNL1        0.0197
     41 C          60.1322   89.0842    9.3986 C.2     1  UNL1        0.0969
     42 N          59.7823   90.3437   10.1341 N.2     1  UNL1       -0.2228
     43 C          60.9841   90.7674   10.9254 C.2     1  UNL1        0.1986
     44 N          62.0767   89.7697   10.6789 N.2     1  UNL1       -0.2265
     45 C          61.5502   88.7294    9.7352 C.2     1  UNL1        0.0824
     46 C          62.1789   87.5050    9.1390 C.3     1  UNL1        0.0694
@<TRIPOS>BOND
     1    10    11    1
     2    11    12   ar
     3    12    13   ar
     4    13    14    1
     5    13    15   ar
     6    15    16   ar
     7    16     1    1
     8     1     2    2
     9     2     3    1
    10     3     4    2
    11     4     5    1
    12     5     6    2
    13     6    18    1
    14    18    19    1
    15    18    20    1
    16    18    21    1
    17    21    22    2
    18    21    23   am
    19    23    24    1
    20    24    25    1
    21    25    26    1
    22    26    27    1
    23    27    28    1
    24    28    29    1
    25    29    30    1
    26     6     7    1
    27     7     8    1
    28     8     9    2
    29     9    31    1
    30    31    32    1
    31    31    33    1
    32    33    34    1
    33    34    36    1
    34    36    37    1
    35    37    38    1
    36    38    39    2
    37    39    40    1
    38    40    41    2
    39    41    42    1
    40    42    43    2
    41    43    44    1
    42    44    45    2
    43    45    46    1
    44    16    17   ar
    45    17    11   ar
    46     9     1    1
    47    46    38    1
    48     8     3    1
    49    45    41    1
    50    28    23    1
    51    30    25    1
    52    34    35    1
@<TRIPOS>MOLECULE
*****
 46 52 0 0 0
SMALL
GASTEIGER

@<TRIPOS>ATOM
      1 C          63.1350   83.2854   13.3260 C.2     1  UNL1        0.0770
      2 N          63.1628   83.7439   14.7540 N.2     1  UNL1       -0.2460
      3 C          63.3875   85.2269   14.7605 C.2     1  UNL1        0.0773
      4 C          63.5053   86.2193   15.8790 C.2     1  UNL1        0.0182
      5 C          63.7342   87.6699   15.5736 C.2     1  UNL1       -0.0062
      6 C          63.8453   88.1281   14.1496 C.2     1  UNL1       -0.0322
      7 C          63.7275   87.1357   13.0310 C.3     1  UNL1        0.0500
      8 C          63.4986   85.6851   13.3365 C.2     1  UNL1       -0.0029
      9 C          63.3425   84.4852   12.4500 C.2     1  UNL1       -0.0057
     10 C          62.0697   78.3063   14.3621 C.3     1  UNL1        0.0310
     11 C          62.4022   79.3853   13.3746 C.ar    1  UNL1       -0.0221
     12 C          62.5345   79.0539   11.9177 C.ar    1  UNL1       -0.0085
     13 C          62.8669   80.1329   10.9303 C.ar    1  UNL1       -0.0221
     14 C          62.9992   79.8015    9.4733 C.3     1  UNL1        0.0310
     15 C          63.0671   81.5434   11.3997 C.ar    1  UNL1       -0.0028
     16 C          62.9348   81.8749   12.8566 C.ar    1  UNL1        0.0167
     17 C          62.6024   80.7959   13.8440 C.ar    1  UNL1       -0.0028
     18 C          64.0742   89.5788   13.8441 C.3     1  UNL1        0.0845
     19 C          63.8773   89.3022   12.3831 C.3     1  UNL1        0.0132
     20 C          64.2712   89.8553   15.3052 C.3     1  UNL1        0.0132
     21 C          64.3031   91.0294   13.5387 C.2     1  UNL1        0.2281
     22 O          63.2779   91.8037   12.7645 O.2     1  UNL1       -0.2746
     23 N          66.6636   91.7281   14.5902 N.am    1  UNL1       -0.2809
     24 C          66.8706   93.0398   14.3140 C.3     1  UNL1        0.0933
     25 C          67.0402   93.8328   14.1707 C.3     1  UNL1        0.0200
     26 C          68.0655   93.0584   14.9450 C.3     1  UNL1        0.0034
     27 C          67.8366   91.6079   15.2504 C.3     1  UNL1        0.0199
     28 C          66.5825   90.9315   14.7817 C.3     1  UNL1        0.0753
     29 C          65.5572   91.7057   14.0075 C.3     1  UNL1        0.0199
     30 C          65.7861   93.1564   13.7020 C.3     1  UNL1        0.0034
     31 C          63.3864   84.4851   10.9506 C.3     1  UNL1        0.0393
     32 C          64.3898   83.6344   10.2296 C.3     1  UNL1        0.0062
     33 C          62.4269   85.3355   10.1722 C.3     1  UNL1        0.0730
     34 N          62.6829   85.6196    8.7217 N.3     1  UNL1       -0.2969
     35 H          63.5424   85.1298    8.4730 H       1  UNL1        0.1233
     36 C          61.6581   85.2460    7.6921 C.3     1  UNL1        0.0730
     37 C          60.3472   85.9732    7.6402 C.3     1  UNL1        0.0395
     38 C          60.1569   87.2334    8.4313 C.2     1  UNL1       -0.0368
     39 C          60.1215   88.5599    7.7319 C.2     1  UNL1       -0.0065
     40 C          59.9311   89.8200    8.5230 C.2     1  UNL1        0.0197
     41 C          59.7761   89.7537   10.0135 C.2     1  UNL1        0.0969
     42 N          59.5755   90.8191   11.0501 N.2     1  UNL1       -0.2228
     43 C          59.4869   90.1511   12.3902 C.2     1  UNL1        0.1986
     44 N          59.6327   88.6728   12.1818 N.2     1  UNL1       -0.2265
     45 C          59.8115   88.4272   10.7128 C.2     1  UNL1        0.0824
     46 C          60.0019   87.1671    9.9218 C.3     1  UNL1        0.0694
@<TRIPOS>BOND
     1    10    11    1
     2    11    12   ar
     3    12    13   ar
     4    13    14    1
     5    13    15   ar
     6    15    16   ar
     7    16     1    1
     8     1     2    2
     9     2     3    1
    10     3     4    2
    11     4     5    1
    12     5     6    2
    13     6    18    1
    14    18    19    1
    15    18    20    1
    16    18    21    1
    17    21    22    2
    18    21    23   am
    19    23    24    1
    20    24    25    1
    21    25    26    1
    22    26    27    1
    23    27    28    1
    24    28    29    1
    25    29    30    1
    26     6     7    1
    27     7     8    1
    28     8     9    2
    29     9    31    1
    30    31    32    1
    31    31    33    1
    32    33    34    1
    33    34    36    1
    34    36    37    1
    35    37    38    1
    36    38    39    2
    37    39    40    1
    38    40    41    2
    39    41    42    1
    40    42    43    2
    41    43    44    1
    42    44    45    2
    43    45    46    1
    44    16    17   ar
    45    17    11   ar
    46     9     1    1
    47    46    38    1
    48     8     3    1
    49    45    41    1
    50    28    23    1
    51    30    25    1
    52    34    35    1
@<TRIPOS>MOLECULE
*****
 46 52 0 0 0
SMALL
GASTEIGER

@<TRIPOS>ATOM
      1 C          61.3420   92.5093    2.8186 C.2     1  UNL1        0.0770
      2 N          62.7922   92.7762    3.0933 N.2     1  UNL1       -0.2460
      3 C          63.3887   93.4021    1.8675 C.2     1  UNL1        0.0773
      4 C          64.7770   93.8783    1.5580 C.2     1  UNL1        0.0182
      5 C          65.0836   94.4745    0.2162 C.2     1  UNL1       -0.0062
      6 C          64.0019   94.5945   -0.8161 C.2     1  UNL1       -0.0322
      7 C          62.6137   94.1183   -0.5066 C.3     1  UNL1        0.0500
      8 C          62.3070   93.5221    0.8352 C.2     1  UNL1       -0.0029
      9 C          61.0421   92.9703    1.4230 C.2     1  UNL1       -0.0057
     10 C          60.3389   89.3286    6.8032 C.3     1  UNL1        0.0310
     11 C          59.8618   90.2998    5.7643 C.ar    1  UNL1       -0.0221
     12 C          58.4062   90.6519    5.6789 C.ar    1  UNL1       -0.0085
     13 C          57.9293   91.6231    4.6401 C.ar    1  UNL1       -0.0221
     14 C          56.4736   91.9752    4.5546 C.3     1  UNL1        0.0310
     15 C          58.9078   92.2422    3.6866 C.ar    1  UNL1       -0.0028
     16 C          60.3634   91.8902    3.7720 C.ar    1  UNL1        0.0167
     17 C          60.8404   90.9190    4.8109 C.ar    1  UNL1       -0.0028
     18 C          64.3086   95.1907   -2.1580 C.3     1  UNL1        0.0845
     19 C          64.2162   93.8304   -2.7834 C.3     1  UNL1        0.0132
     20 C          64.4011   96.5509   -1.5326 C.3     1  UNL1        0.0132
     21 C          64.6153   95.7868   -3.4998 C.2     1  UNL1        0.2281
     22 O          66.0272   96.1478   -3.8552 O.2     1  UNL1       -0.2746
     23 N          62.3151   95.9900   -4.8539 N.am    1  UNL1       -0.2809
     24 C          62.5924   96.5290   -6.0673 C.3     1  UNL1        0.0933
     25 C          62.7116   96.8533   -6.8148 C.3     1  UNL1        0.0200
     26 C          61.2997   96.4923   -6.4594 C.3     1  UNL1        0.0034
     27 C          60.9930   95.8961   -5.1176 C.3     1  UNL1        0.0199
     28 C          62.0982   95.6610   -4.1310 C.3     1  UNL1        0.0753
     29 C          63.5101   96.0219   -4.4863 C.3     1  UNL1        0.0199
     30 C          63.8168   96.6181   -5.8282 C.3     1  UNL1        0.0034
     31 C          59.7110   92.8931    0.7359 C.3     1  UNL1        0.0393
     32 C          59.2783   91.6150    0.0805 C.3     1  UNL1        0.0062
     33 C          58.8126   94.0937    0.7040 C.3     1  UNL1        0.0730
     34 N          59.1280   95.2426   -0.2074 N.3     1  UNL1       -0.2969
     35 H          60.1423   95.3502   -0.2054 H       1  UNL1        0.1233
     36 C          58.7000   95.1993   -1.6444 C.3     1  UNL1        0.0730
     37 C          59.1522   94.0748   -2.5281 C.3     1  UNL1        0.0395
     38 C          58.1413   93.2458   -3.2635 C.2     1  UNL1       -0.0368
     39 C          57.1309   92.4428   -2.4991 C.2     1  UNL1       -0.0065
     40 C          56.1200   91.6137   -3.2345 C.2     1  UNL1        0.0197
     41 C          56.1195   91.5876   -4.7343 C.2     1  UNL1        0.0969
     42 N          55.2519   90.8700   -5.7253 N.2     1  UNL1       -0.2228
     43 C          55.7261   91.2294   -7.1022 C.2     1  UNL1        0.1986
     44 N          56.8867   92.1692   -6.9621 N.2     1  UNL1       -0.2265
     45 C          57.1299   92.3906   -5.4986 C.2     1  UNL1        0.0824
     46 C          58.1408   93.2197   -4.7632 C.3     1  UNL1        0.0694
@<TRIPOS>BOND
     1    10    11    1
     2    11    12   ar
     3    12    13   ar
     4    13    14    1
     5    13    15   ar
     6    15    16   ar
     7    16     1    1
     8     1     2    2
     9     2     3    1
    10     3     4    2
    11     4     5    1
    12     5     6    2
    13     6    18    1
    14    18    19    1
    15    18    20    1
    16    18    21    1
    17    21    22    2
    18    21    23   am
    19    23    24    1
    20    24    25    1
    21    25    26    1
    22    26    27    1
    23    27    28    1
    24    28    29    1
    25    29    30    1
    26     6     7    1
    27     7     8    1
    28     8     9    2
    29     9    31    1
    30    31    32    1
    31    31    33    1
    32    33    34    1
    33    34    36    1
    34    36    37    1
    35    37    38    1
    36    38    39    2
    37    39    40    1
    38    40    41    2
    39    41    42    1
    40    42    43    2
    41    43    44    1
    42    44    45    2
    43    45    46    1
    44    16    17   ar
    45    17    11   ar
    46     9     1    1
    47    46    38    1
    48     8     3    1
    49    45    41    1
    50    28    23    1
    51    30    25    1
    52    34    35    1
@<TRIPOS>MOLECULE
*****
 46 52 0 0 0
SMALL
GASTEIGER

@<TRIPOS>ATOM
      1 C          60.0219   88.4863    7.0096 C.2     1  UNL1        0.0770
      2 N          60.2195   87.0851    6.5120 N.2     1  UNL1       -0.2460
      3 C          60.8881   86.2971    7.5991 C.2     1  UNL1        0.0773
      4 C          61.3284   84.8652    7.6752 C.2     1  UNL1        0.0182
      5 C          61.9844   84.3475    8.9208 C.2     1  UNL1       -0.0062
      6 C          62.2002   85.2616   10.0903 C.2     1  UNL1       -0.0322
      7 C          61.7599   86.6935   10.0143 C.3     1  UNL1        0.0500
      8 C          61.1039   87.2112    8.7687 C.2     1  UNL1       -0.0029
      9 C          60.5685   88.5643    8.4043 C.2     1  UNL1       -0.0057
     10 C          55.7715   91.0412    5.4584 C.3     1  UNL1        0.0310
     11 C          57.2638   90.8894    5.4709 C.ar    1  UNL1       -0.0221
     12 C          58.1230   91.8632    4.7203 C.ar    1  UNL1       -0.0085
     13 C          59.6153   91.7114    4.7328 C.ar    1  UNL1       -0.0221
     14 C          60.4746   92.6852    3.9822 C.3     1  UNL1        0.0310
     15 C          60.2482   90.5857    5.4959 C.ar    1  UNL1       -0.0028
     16 C          59.3890   89.6120    6.2465 C.ar    1  UNL1        0.0167
     17 C          57.8968   89.7638    6.2340 C.ar    1  UNL1       -0.0028
     18 C          62.8562   84.7439   11.3360 C.3     1  UNL1        0.0845
     19 C          63.7876   83.9158   10.5012 C.3     1  UNL1        0.0132
     20 C          61.9248   85.5719   12.1708 C.3     1  UNL1        0.0132
     21 C          63.5123   84.2261   12.5815 C.2     1  UNL1        0.2281
     22 O          64.3386   85.1451   13.4316 O.2     1  UNL1       -0.2746
     23 N          62.8945   81.6322   12.8184 N.am    1  UNL1       -0.2809
     24 C          63.4877   81.1640   13.9446 C.3     1  UNL1        0.0933
     25 C          63.8279   80.8346   14.6183 C.3     1  UNL1        0.0200
     26 C          63.0015   79.9155   13.7683 C.3     1  UNL1        0.0034
     27 C          62.3455   80.4333   12.5227 C.3     1  UNL1        0.0199
     28 C          62.5157   81.8702   12.1271 C.3     1  UNL1        0.0753
     29 C          63.3420   82.7892   12.9771 C.3     1  UNL1        0.0199
     30 C          63.9981   82.2715   14.2227 C.3     1  UNL1        0.0034
     31 C          60.5781   89.7815    9.2808 C.3     1  UNL1        0.0393
     32 C          59.3008   90.2744    9.8938 C.3     1  UNL1        0.0062
     33 C          61.8648   90.5059    9.5443 C.3     1  UNL1        0.0730
     34 N          62.8466   89.9545   10.5353 N.3     1  UNL1       -0.2969
     35 H          63.7079   90.4898   10.4255 H       1  UNL1        0.1233
     36 C          62.5177   89.9587   11.9988 C.3     1  UNL1        0.0730
     37 C          63.6033   89.7476   13.0121 C.3     1  UNL1        0.0395
     38 C          64.5797   90.8478   13.3055 C.2     1  UNL1       -0.0368
     39 C          64.8141   91.9317   12.2956 C.2     1  UNL1       -0.0065
     40 C          65.7905   93.0320   12.5890 C.2     1  UNL1        0.0197
     41 C          66.5325   93.0483   13.8925 C.2     1  UNL1        0.0969
     42 N          67.5485   93.9964   14.4572 N.2     1  UNL1       -0.2228
     43 C          67.9421   93.4984   15.8162 C.2     1  UNL1        0.1986
     44 N          67.1694   92.2425   16.0914 N.2     1  UNL1       -0.2265
     45 C          66.2982   91.9644   14.9024 C.2     1  UNL1        0.0824
     46 C          65.3218   90.8641   14.6090 C.3     1  UNL1        0.0694
@<TRIPOS>BOND
     1    10    11    1
     2    11    12   ar
     3    12    13   ar
     4    13    14    1
     5    13    15   ar
     6    15    16   ar
     7    16     1    1
     8     1     2    2
     9     2     3    1
    10     3     4    2
    11     4     5    1
    12     5     6    2
    13     6    18    1
    14    18    19    1
    15    18    20    1
    16    18    21    1
    17    21    22    2
    18    21    23   am
    19    23    24    1
    20    24    25    1
    21    25    26    1
    22    26    27    1
    23    27    28    1
    24    28    29    1
    25    29    30    1
    26     6     7    1
    27     7     8    1
    28     8     9    2
    29     9    31    1
    30    31    32    1
    31    31    33    1
    32    33    34    1
    33    34    36    1
    34    36    37    1
    35    37    38    1
    36    38    39    2
    37    39    40    1
    38    40    41    2
    39    41    42    1
    40    42    43    2
    41    43    44    1
    42    44    45    2
    43    45    46    1
    44    16    17   ar
    45    17    11   ar
    46     9     1    1
    47    46    38    1
    48     8     3    1
    49    45    41    1
    50    28    23    1
    51    30    25    1
    52    34    35    1
@<TRIPOS>MOLECULE
*****
 46 52 0 0 0
SMALL
GASTEIGER

@<TRIPOS>ATOM
      1 C          61.2778   92.4111    2.8190 C.2     1  UNL1        0.0770
      2 N          62.7636   92.4797    3.0129 N.2     1  UNL1       -0.2460
      3 C          63.3605   93.1240    1.7969 C.2     1  UNL1        0.0773
      4 C          64.7768   93.4531    1.4284 C.2     1  UNL1        0.0182
      5 C          65.0761   94.1118    0.1145 C.2     1  UNL1       -0.0062
      6 C          63.9592   94.4413   -0.8309 C.2     1  UNL1       -0.0322
      7 C          62.5429   94.1122   -0.4625 C.3     1  UNL1        0.0500
      8 C          62.2436   93.4535    0.8515 C.2     1  UNL1       -0.0029
      9 C          60.9564   93.0129    1.4832 C.2     1  UNL1       -0.0057
     10 C          60.2013   89.3236    6.8574 C.3     1  UNL1        0.0310
     11 C          59.7490   90.2970    5.8096 C.ar    1  UNL1       -0.0221
     12 C          58.3062   90.7000    5.7332 C.ar    1  UNL1       -0.0085
     13 C          57.8539   91.6734    4.6854 C.ar    1  UNL1       -0.0221
     14 C          56.4111   92.0765    4.6089 C.3     1  UNL1        0.0310
     15 C          58.8445   92.2438    3.7140 C.ar    1  UNL1       -0.0028
     16 C          60.2872   91.8407    3.7904 C.ar    1  UNL1        0.0167
     17 C          60.7395   90.8673    4.8382 C.ar    1  UNL1       -0.0028
     18 C          64.2586   95.1001   -2.1450 C.3     1  UNL1        0.0845
     19 C          64.2415   93.7608   -2.8202 C.3     1  UNL1        0.0132
     20 C          64.2756   96.4393   -1.4697 C.3     1  UNL1        0.0132
     21 C          64.5579   95.7587   -3.4589 C.2     1  UNL1        0.2281
     22 O          65.9566   96.1986   -3.7759 O.2     1  UNL1       -0.2746
     23 N          62.2728   95.9027   -4.8456 N.am    1  UNL1       -0.2809
     24 C          62.5435   96.4983   -6.0337 C.3     1  UNL1        0.0933
     25 C          62.6591   96.8549   -6.7669 C.3     1  UNL1        0.0200
     26 C          61.2604   96.4149   -6.4499 C.3     1  UNL1        0.0034
     27 C          60.9611   95.7563   -5.1359 C.3     1  UNL1        0.0199
     28 C          62.0602   95.5375   -4.1389 C.3     1  UNL1        0.0753
     29 C          63.4588   95.9774   -4.4559 C.3     1  UNL1        0.0199
     30 C          63.7582   96.6361   -5.7699 C.3     1  UNL1        0.0034
     31 C          59.5881   93.1501    0.8842 C.3     1  UNL1        0.0393
     32 C          58.9127   94.4892    0.8554 C.3     1  UNL1        0.0062
     33 C          58.8950   91.9483    0.3139 C.3     1  UNL1        0.0730
     34 N          57.8919   92.1140   -0.7890 N.3     1  UNL1       -0.2969
     35 H          57.2510   92.8514   -0.4957 H       1  UNL1        0.1233
     36 C          58.3504   92.4641   -2.1736 C.3     1  UNL1        0.0730
     37 C          58.2988   93.8878   -2.6431 C.3     1  UNL1        0.0395
     38 C          56.9753   94.5458   -2.8987 C.2     1  UNL1       -0.0368
     39 C          56.4915   94.7361   -4.3057 C.2     1  UNL1       -0.0065
     40 C          55.1680   95.3941   -4.5612 C.2     1  UNL1        0.0197
     41 C          54.3282   95.8618   -3.4096 C.2     1  UNL1        0.0969
     42 N          52.9909   96.5387   -3.3525 N.2     1  UNL1       -0.2228
     43 C          52.6481   96.7668   -1.9101 C.2     1  UNL1        0.1986
     44 N          53.7736   96.2308   -1.0758 N.2     1  UNL1       -0.2265
     45 C          54.8120   95.6715   -2.0027 C.2     1  UNL1        0.0824
     46 C          56.1355   95.0135   -1.7471 C.3     1  UNL1        0.0694
@<TRIPOS>BOND
     1    10    11    1
     2    11    12   ar
     3    12    13   ar
     4    13    14    1
     5    13    15   ar
     6    15    16   ar
     7    16     1    1
     8     1     2    2
     9     2     3    1
    10     3     4    2
    11     4     5    1
    12     5     6    2
    13     6    18    1
    14    18    19    1
    15    18    20    1
    16    18    21    1
    17    21    22    2
    18    21    23   am
    19    23    24    1
    20    24    25    1
    21    25    26    1
    22    26    27    1
    23    27    28    1
    24    28    29    1
    25    29    30    1
    26     6     7    1
    27     7     8    1
    28     8     9    2
    29     9    31    1
    30    31    32    1
    31    31    33    1
    32    33    34    1
    33    34    36    1
    34    36    37    1
    35    37    38    1
    36    38    39    2
    37    39    40    1
    38    40    41    2
    39    41    42    1
    40    42    43    2
    41    43    44    1
    42    44    45    2
    43    45    46    1
    44    16    17   ar
    45    17    11   ar
    46     9     1    1
    47    46    38    1
    48     8     3    1
    49    45    41    1
    50    28    23    1
    51    30    25    1
    52    34    35    1
@<TRIPOS>MOLECULE
*****
 46 52 0 0 0
SMALL
GASTEIGER

@<TRIPOS>ATOM
      1 C          61.3333   92.4592    2.8591 C.2     1  UNL1        0.0770
      2 N          62.8131   92.5681    3.0784 N.2     1  UNL1       -0.2460
      3 C          63.4152   93.2137    1.8656 C.2     1  UNL1        0.0773
      4 C          64.8290   93.5748    1.5183 C.2     1  UNL1        0.0182
      5 C          65.1350   94.2261    0.2022 C.2     1  UNL1       -0.0062
      6 C          64.0272   94.5162   -0.7665 C.2     1  UNL1       -0.0322
      7 C          62.6134   94.1551   -0.4192 C.3     1  UNL1        0.0500
      8 C          62.3074   93.5038    0.8968 C.2     1  UNL1       -0.0029
      9 C          61.0207   93.0375    1.5109 C.2     1  UNL1       -0.0057
     10 C          56.4738   92.1452    4.6721 C.3     1  UNL1        0.0310
     11 C          57.9106   91.7177    4.7260 C.ar    1  UNL1       -0.0221
     12 C          58.3544   90.7056    5.7403 C.ar    1  UNL1       -0.0085
     13 C          59.7911   90.2781    5.7941 C.ar    1  UNL1       -0.0221
     14 C          60.2350   89.2659    6.8084 C.3     1  UNL1        0.0310
     15 C          60.7841   90.8626    4.8338 C.ar    1  UNL1       -0.0028
     16 C          60.3403   91.8747    3.8195 C.ar    1  UNL1        0.0167
     17 C          58.9036   92.3022    3.7657 C.ar    1  UNL1       -0.0028
     18 C          64.3333   95.1676   -2.0827 C.3     1  UNL1        0.0845
     19 C          64.3750   96.5075   -1.4098 C.3     1  UNL1        0.0132
     20 C          64.2915   93.8277   -2.7556 C.3     1  UNL1        0.0132
     21 C          64.6393   95.8189   -3.3987 C.2     1  UNL1        0.2281
     22 O          66.0268   96.3103   -3.6877 O.2     1  UNL1       -0.2746
     23 N          62.3861   95.8508   -4.8436 N.am    1  UNL1       -0.2809
     24 C          62.6628   96.4398   -6.0337 C.3     1  UNL1        0.0933
     25 C          62.7826   96.7903   -6.7691 C.3     1  UNL1        0.0200
     26 C          61.3951   96.2989   -6.4801 C.3     1  UNL1        0.0034
     27 C          61.0891   95.6475   -5.1641 C.3     1  UNL1        0.0199
     28 C          62.1705   95.4875   -4.1369 C.3     1  UNL1        0.0753
     29 C          63.5579   95.9789   -4.4259 C.3     1  UNL1        0.0199
     30 C          63.8640   96.6303   -5.7420 C.3     1  UNL1        0.0034
     31 C          59.6603   93.1329    0.8863 C.3     1  UNL1        0.0393
     32 C          58.8962   94.4224    0.9461 C.3     1  UNL1        0.0062
     33 C          59.0638   91.9389    0.2018 C.3     1  UNL1        0.0730
     34 N          58.4159   92.0909   -1.1425 N.3     1  UNL1       -0.2969
     35 H          57.5396   92.5907   -0.9921 H       1  UNL1        0.1233
     36 C          59.1378   92.8050   -2.2465 C.3     1  UNL1        0.0730
     37 C          58.3696   93.6397   -3.2279 C.3     1  UNL1        0.0395
     38 C          57.6485   92.9837   -4.3679 C.2     1  UNL1       -0.0368
     39 C          58.0032   93.3362   -5.7820 C.2     1  UNL1       -0.0065
     40 C          57.2821   92.6801   -6.9220 C.2     1  UNL1        0.0197
     41 C          56.2062   91.6715   -6.6479 C.2     1  UNL1        0.0969
     42 N          55.3292   90.8663   -7.5603 N.2     1  UNL1       -0.2228
     43 C          54.4324   90.0162   -6.7100 C.2     1  UNL1        0.1986
     44 N          54.7552   90.2959   -5.2721 N.2     1  UNL1       -0.2265
     45 C          55.8515   91.3189   -5.2337 C.2     1  UNL1        0.0824
     46 C          56.5726   91.9750   -4.0937 C.3     1  UNL1        0.0694
@<TRIPOS>BOND
     1    10    11    1
     2    11    12   ar
     3    12    13   ar
     4    13    14    1
     5    13    15   ar
     6    15    16   ar
     7    16     1    1
     8     1     2    2
     9     2     3    1
    10     3     4    2
    11     4     5    1
    12     5     6    2
    13     6    18    1
    14    18    19    1
    15    18    20    1
    16    18    21    1
    17    21    22    2
    18    21    23   am
    19    23    24    1
    20    24    25    1
    21    25    26    1
    22    26    27    1
    23    27    28    1
    24    28    29    1
    25    29    30    1
    26     6     7    1
    27     7     8    1
    28     8     9    2
    29     9    31    1
    30    31    32    1
    31    31    33    1
    32    33    34    1
    33    34    36    1
    34    36    37    1
    35    37    38    1
    36    38    39    2
    37    39    40    1
    38    40    41    2
    39    41    42    1
    40    42    43    2
    41    43    44    1
    42    44    45    2
    43    45    46    1
    44    16    17   ar
    45    17    11   ar
    46     9     1    1
    47    46    38    1
    48     8     3    1
    49    45    41    1
    50    28    23    1
    51    30    25    1
    52    34    35    1
@<TRIPOS>MOLECULE
*****
 46 52 0 0 0
SMALL
GASTEIGER

@<TRIPOS>ATOM
      1 C          60.0396   88.3713    7.0310 C.2     1  UNL1        0.0770
      2 N          60.3375   87.0097    6.4768 N.2     1  UNL1       -0.2460
      3 C          61.0144   86.2101    7.5503 C.2     1  UNL1        0.0773
      4 C          61.5366   84.8043    7.5763 C.2     1  UNL1        0.0182
      5 C          62.1793   84.2659    8.8201 C.2     1  UNL1       -0.0062
      6 C          62.2998   85.1334   10.0379 C.2     1  UNL1       -0.0322
      7 C          61.7776   86.5393   10.0118 C.3     1  UNL1        0.0500
      8 C          61.1349   87.0776    8.7681 C.2     1  UNL1       -0.0029
      9 C          60.5324   88.4133    8.4471 C.2     1  UNL1       -0.0057
     10 C          60.3390   92.6182    4.0519 C.3     1  UNL1        0.0310
     11 C          59.5166   91.6173    4.8083 C.ar    1  UNL1       -0.0221
     12 C          58.0218   91.7390    4.8316 C.ar    1  UNL1       -0.0085
     13 C          57.1995   90.7381    5.5879 C.ar    1  UNL1       -0.0221
     14 C          55.7046   90.8598    5.6112 C.3     1  UNL1        0.0310
     15 C          57.8721   89.6156    6.3211 C.ar    1  UNL1       -0.0028
     16 C          59.3670   89.4939    6.2978 C.ar    1  UNL1        0.0167
     17 C          60.1892   90.4947    5.5415 C.ar    1  UNL1       -0.0028
     18 C          62.9425   84.5949   11.2817 C.3     1  UNL1        0.0845
     19 C          63.8635   83.7586   10.4437 C.3     1  UNL1        0.0132
     20 C          62.0216   85.4312   12.1197 C.3     1  UNL1        0.0132
     21 C          63.5853   84.0565   12.5254 C.2     1  UNL1        0.2281
     22 O          64.4568   84.9440   13.3639 O.2     1  UNL1       -0.2746
     23 N          62.8587   81.4929   12.7822 N.am    1  UNL1       -0.2809
     24 C          63.4399   81.0060   13.9068 C.3     1  UNL1        0.0933
     25 C          63.7708   80.6661   14.5799 C.3     1  UNL1        0.0200
     26 C          62.8993   79.7786   13.7415 C.3     1  UNL1        0.0034
     27 C          62.2566   80.3170   12.4978 C.3     1  UNL1        0.0199
     28 C          62.4852   81.7430   12.0924 C.3     1  UNL1        0.0753
     29 C          63.3566   82.6305   12.9308 C.3     1  UNL1        0.0199
     30 C          63.9994   82.0921   14.1746 C.3     1  UNL1        0.0034
     31 C          60.4392   89.5852    9.3787 C.3     1  UNL1        0.0393
     32 C          61.2592   90.8148    9.1217 C.3     1  UNL1        0.0062
     33 C          59.5260   89.5278   10.5672 C.3     1  UNL1        0.0730
     34 N          60.0331   89.0040   11.8782 N.3     1  UNL1       -0.2969
     35 H          60.3577   88.0519   11.7091 H       1  UNL1        0.1233
     36 C          61.1412   89.7187   12.5932 C.3     1  UNL1        0.0730
     37 C          62.5705   89.3724   12.2979 C.3     1  UNL1        0.0395
     38 C          63.6459   90.4008   12.4873 C.2     1  UNL1       -0.0368
     39 C          64.4510   90.4198   13.7528 C.2     1  UNL1       -0.0065
     40 C          65.5264   91.4482   13.9422 C.2     1  UNL1        0.0197
     41 C          65.7968   92.4576   12.8661 C.2     1  UNL1        0.0969
     42 N          66.7846   93.5823   12.7702 N.2     1  UNL1       -0.2228
     43 C          66.5900   94.2585   11.4455 C.2     1  UNL1        0.1986
     44 N          65.4820   93.5516   10.7226 N.2     1  UNL1       -0.2265
     45 C          64.9918   92.4385   11.6006 C.2     1  UNL1        0.0824
     46 C          63.9163   91.4102   11.4112 C.3     1  UNL1        0.0694
@<TRIPOS>BOND
     1    10    11    1
     2    11    12   ar
     3    12    13   ar
     4    13    14    1
     5    13    15   ar
     6    15    16   ar
     7    16     1    1
     8     1     2    2
     9     2     3    1
    10     3     4    2
    11     4     5    1
    12     5     6    2
    13     6    18    1
    14    18    19    1
    15    18    20    1
    16    18    21    1
    17    21    22    2
    18    21    23   am
    19    23    24    1
    20    24    25    1
    21    25    26    1
    22    26    27    1
    23    27    28    1
    24    28    29    1
    25    29    30    1
    26     6     7    1
    27     7     8    1
    28     8     9    2
    29     9    31    1
    30    31    32    1
    31    31    33    1
    32    33    34    1
    33    34    36    1
    34    36    37    1
    35    37    38    1
    36    38    39    2
    37    39    40    1
    38    40    41    2
    39    41    42    1
    40    42    43    2
    41    43    44    1
    42    44    45    2
    43    45    46    1
    44    16    17   ar
    45    17    11   ar
    46     9     1    1
    47    46    38    1
    48     8     3    1
    49    45    41    1
    50    28    23    1
    51    30    25    1
    52    34    35    1
