@<TRIPOS>MOLECULE
*****
 40 44 0 0 0
SMALL
GASTEIGER

@<TRIPOS>ATOM
      1 C          62.8360   90.0965   11.3478 C.3     1  UNL1        0.1164
      2 C          62.9748   90.9014   10.0897 C.3     1  UNL1        0.0213
      3 C          63.9808   92.0115   10.0167 C.3     1  UNL1        0.0033
      4 C          64.8481   92.3168   11.2019 C.3     1  UNL1        0.0223
      5 C          64.7094   91.5119   12.4600 C.3     1  UNL1        0.1019
      6 N          63.7033   90.4018   12.5329 N.3     1  UNL1       -0.1508
      7 C          65.5767   91.8172   13.6451 C.ar    1  UNL1       -0.0017
      8 C          67.0675   91.8733   13.4889 C.ar    1  UNL1        0.0269
      9 C          67.9348   92.1786   14.6741 C.ar    1  UNL1        0.1421
     10 F          69.4256   92.2348   14.5178 F       1  UNL1       -0.2041
     11 C          67.3114   92.4277   16.0154 C.ar    1  UNL1        0.0592
     12 C          65.8206   92.3716   16.1716 C.ar    1  UNL1        0.1421
     13 F          65.1971   92.6207   17.5130 F       1  UNL1       -0.2041
     14 C          64.9533   92.0663   14.9865 C.ar    1  UNL1        0.0269
     15 C          61.8299   88.9863   11.4208 C.3     1  UNL1        0.1525
     16 C          60.5066   88.2802   11.4078 C.3     1  UNL1        0.0452
     17 C          60.5668   89.7643   11.1983 C.3     1  UNL1        0.0452
     18 O          62.7436   87.8228   11.6686 O.3     1  UNL1       -0.4404
     19 O          62.3187   86.7039    9.3626 O.2     1  UNL1       -0.2262
     20 C          62.6305   86.5875   10.8253 C.2     1  UNL1        0.4048
     21 N          62.8290   85.2358   11.4445 N.am    1  UNL1       -0.2432
     22 C          63.1408   85.1194   12.9071 C.3     1  UNL1        0.1141
     23 C          63.3393   83.7676   13.5264 C.3     1  UNL1        0.0941
     24 N          63.2262   82.5324   12.6831 N.3     1  UNL1       -0.2676
     25 C          62.9145   82.6487   11.2205 C.3     1  UNL1        0.0941
     26 C          62.7159   84.0005   10.6011 C.3     1  UNL1        0.1141
     27 C          63.4248   81.1807   13.3023 C.3     1  UNL1        0.1043
     28 C          62.2423   80.4002   13.7945 C.3     1  UNL1        0.1544
     29 O          61.1572   81.0900   14.5671 O.3     1  UNL1       -0.3805
     30 H          61.5113   81.4003   15.4152 H       1  UNL1        0.2105
     31 S          63.5645   89.5968   13.7911 S.O2    1  UNL1        0.0636
     32 O          64.6366   88.7765   13.7740 O.2     1  UNL1       -0.1528
     33 O          62.3023   90.3355   14.1244 O.2     1  UNL1       -0.1528
     34 C          63.4257   88.7920   15.0492 C.ar    1  UNL1        0.1223
     35 C          62.9296   89.4439   16.3058 C.ar    1  UNL1        0.0208
     36 C          62.7908   88.6390   17.5639 C.ar    1  UNL1        0.0128
     37 C          63.1481   87.1822   17.5655 C.ar    1  UNL1        0.0578
     38 CL         63.0092   86.3773   18.8236 Cl      1  UNL1       -0.0822
     39 C          63.6441   86.5302   16.3090 C.ar    1  UNL1        0.0128
     40 C          63.7830   87.3351   15.0508 C.ar    1  UNL1        0.0208
@<TRIPOS>BOND
     1    19    20    2
     2    20    18    1
     3    18    15    1
     4     1    15    1
     5     1     2    1
     6     2     3    1
     7     3     4    1
     8     4     5    1
     9     5     7    1
    10     7     8   ar
    11     8     9   ar
    12     9    10    1
    13     9    11   ar
    14    11    12   ar
    15    12    13    1
    16    12    14   ar
    17     5     6    1
    18     6    31    1
    19    31    32    2
    20    31    33    2
    21    31    34    1
    22    34    35   ar
    23    35    36   ar
    24    36    37   ar
    25    37    38    1
    26    37    39   ar
    27    39    40   ar
    28    15    16    1
    29    16    17    1
    30    20    21   am
    31    21    22    1
    32    22    23    1
    33    23    24    1
    34    24    27    1
    35    27    28    1
    36    28    29    1
    37    24    25    1
    38    25    26    1
    39    17    15    1
    40    26    21    1
    41     6     1    1
    42    40    34   ar
    43    14     7   ar
    44    29    30    1
@<TRIPOS>MOLECULE
*****
 40 44 0 0 0
SMALL
GASTEIGER

@<TRIPOS>ATOM
      1 C          63.5199   88.3608   13.3775 C.3     1  UNL1        0.1164
      2 C          64.3295   88.4681   14.6357 C.3     1  UNL1        0.0213
      3 C          64.8504   87.2284   15.3003 C.3     1  UNL1        0.0033
      4 C          64.5616   85.8814   14.7068 C.3     1  UNL1        0.0223
      5 C          63.7520   85.7741   13.4487 C.3     1  UNL1        0.1019
      6 N          63.2311   87.0138   12.7841 N.3     1  UNL1       -0.1508
      7 C          63.4632   84.4272   12.8552 C.ar    1  UNL1       -0.0017
      8 C          64.1215   84.0164   11.5716 C.ar    1  UNL1        0.0269
      9 C          63.8328   82.6694   10.9781 C.ar    1  UNL1        0.1421
     10 F          64.4912   82.2586    9.6944 F       1  UNL1       -0.2041
     11 C          62.8856   81.7332   11.6682 C.ar    1  UNL1        0.0592
     12 C          62.2272   82.1439   12.9519 C.ar    1  UNL1        0.1421
     13 F          61.2800   81.2077   13.6421 F       1  UNL1       -0.2041
     14 C          62.5160   83.4909   13.5454 C.ar    1  UNL1        0.0269
     15 C          62.9989   89.6006   12.7128 C.3     1  UNL1        0.1525
     16 C          62.0289   90.6194   12.1923 C.3     1  UNL1        0.0452
     17 C          61.5245   89.3950   12.8971 C.3     1  UNL1        0.0452
     18 O          64.2925   90.2366   12.2978 O.3     1  UNL1       -0.4404
     19 O          64.5122   91.7241   14.4165 O.2     1  UNL1       -0.2262
     20 C          64.7462   91.5086   12.9506 C.2     1  UNL1        0.4048
     21 N          65.4338   92.5650   12.1377 N.am    1  UNL1       -0.2432
     22 C          65.6678   92.3496   10.6718 C.3     1  UNL1        0.1141
     23 C          66.3554   93.4061    9.8588 C.3     1  UNL1        0.0941
     24 N          66.8091   94.6780   10.5115 N.3     1  UNL1       -0.2676
     25 C          66.5752   94.8936   11.9774 C.3     1  UNL1        0.0941
     26 C          65.8875   93.8371   12.7905 C.3     1  UNL1        0.1141
     27 C          67.4968   95.7345    9.6985 C.3     1  UNL1        0.1043
     28 C          67.2911   95.7907    8.2138 C.3     1  UNL1        0.1544
     29 O          65.9330   96.0980    7.6559 O.3     1  UNL1       -0.3805
     30 H          65.3219   95.3780    7.8773 H       1  UNL1        0.2105
     31 S          62.4214   86.9066   11.5259 S.O2    1  UNL1        0.0636
     32 O          63.1868   87.5109   10.5923 O.2     1  UNL1       -0.1528
     33 O          61.3430   86.1879   12.2812 O.2     1  UNL1       -0.1528
     34 C          61.6117   86.7993   10.2678 C.ar    1  UNL1        0.1223
     35 C          60.3055   87.5278   10.1521 C.ar    1  UNL1        0.0208
     36 C          59.4958   87.4206    8.8940 C.ar    1  UNL1        0.0128
     37 C          59.9922   86.5848    7.7515 C.ar    1  UNL1        0.0578
     38 CL         59.1825   86.4776    6.4934 Cl      1  UNL1       -0.0822
     39 C          61.2983   85.8564    7.8672 C.ar    1  UNL1        0.0128
     40 C          62.1081   85.9636    9.1253 C.ar    1  UNL1        0.0208
@<TRIPOS>BOND
     1    19    20    2
     2    20    18    1
     3    18    15    1
     4     1    15    1
     5     1     2    1
     6     2     3    1
     7     3     4    1
     8     4     5    1
     9     5     7    1
    10     7     8   ar
    11     8     9   ar
    12     9    10    1
    13     9    11   ar
    14    11    12   ar
    15    12    13    1
    16    12    14   ar
    17     5     6    1
    18     6    31    1
    19    31    32    2
    20    31    33    2
    21    31    34    1
    22    34    35   ar
    23    35    36   ar
    24    36    37   ar
    25    37    38    1
    26    37    39   ar
    27    39    40   ar
    28    15    16    1
    29    16    17    1
    30    20    21   am
    31    21    22    1
    32    22    23    1
    33    23    24    1
    34    24    27    1
    35    27    28    1
    36    28    29    1
    37    24    25    1
    38    25    26    1
    39    17    15    1
    40    26    21    1
    41     6     1    1
    42    40    34   ar
    43    14     7   ar
    44    29    30    1
@<TRIPOS>MOLECULE
*****
 40 44 0 0 0
SMALL
GASTEIGER

@<TRIPOS>ATOM
      1 C          62.9436   88.7374   12.6732 C.3     1  UNL1        0.1164
      2 C          63.4332   89.2481   13.9959 C.3     1  UNL1        0.0213
      3 C          63.9067   88.2844   15.0432 C.3     1  UNL1        0.0033
      4 C          63.8906   86.8099   14.7679 C.3     1  UNL1        0.0223
      5 C          63.4009   86.2992   13.4453 C.3     1  UNL1        0.1019
      6 N          62.9274   87.2630   12.3979 N.3     1  UNL1       -0.1508
      7 C          63.3848   84.8248   13.1700 C.ar    1  UNL1       -0.0017
      8 C          62.5947   83.9055   14.0534 C.ar    1  UNL1        0.0269
      9 C          62.5786   82.4311   13.7781 C.ar    1  UNL1        0.1421
     10 F          61.7885   81.5117   14.6617 F       1  UNL1       -0.2041
     11 C          63.3525   81.8760   12.6194 C.ar    1  UNL1        0.0592
     12 C          64.1426   82.7953   11.7359 C.ar    1  UNL1        0.1421
     13 F          64.9166   82.2402   10.5770 F       1  UNL1       -0.2041
     14 C          64.1587   84.2697   12.0112 C.ar    1  UNL1        0.0269
     15 C          62.4700   89.7012   11.6258 C.3     1  UNL1        0.1525
     16 C          61.5408   90.5361   10.7955 C.3     1  UNL1        0.0452
     17 C          60.9933   89.6649   11.8870 C.3     1  UNL1        0.0452
     18 O          63.7822   90.0721   11.0010 O.3     1  UNL1       -0.4404
     19 O          63.8191   92.4143    9.8772 O.2     1  UNL1       -0.2262
     20 C          64.2321   91.5030   10.9948 C.2     1  UNL1        0.4048
     21 N          65.0950   92.0227   12.1063 N.am    1  UNL1       -0.2432
     22 C          65.5080   91.1115   13.2239 C.3     1  UNL1        0.1141
     23 C          66.3709   91.6312   14.3354 C.3     1  UNL1        0.0941
     24 N          66.8208   93.0620   14.3293 N.3     1  UNL1       -0.2676
     25 C          66.4078   93.9733   13.2117 C.3     1  UNL1        0.0941
     26 C          65.5449   93.4537   12.1002 C.3     1  UNL1        0.1141
     27 C          67.6837   93.5817   15.4408 C.3     1  UNL1        0.1043
     28 C          69.1262   93.1785   15.5216 C.3     1  UNL1        0.1544
     29 O          69.7709   92.4645   14.3707 O.3     1  UNL1       -0.3805
     30 H          69.3639   91.5906   14.2634 H       1  UNL1        0.2105
     31 S          62.4378   86.7523   11.0752 S.O2    1  UNL1        0.0636
     32 O          63.4619   86.9983   10.2307 O.2     1  UNL1       -0.1528
     33 O          61.1430   86.3433   11.7125 O.2     1  UNL1       -0.1528
     34 C          61.9481   86.2417    9.7526 C.ar    1  UNL1        0.1223
     35 C          60.5519   86.5508    9.2995 C.ar    1  UNL1        0.0208
     36 C          60.0622   86.0402    7.9769 C.ar    1  UNL1        0.0128
     37 C          60.9686   85.2203    7.1073 C.ar    1  UNL1        0.0578
     38 CL         60.4789   84.7097    5.7846 Cl      1  UNL1       -0.0822
     39 C          62.3647   84.9112    7.5603 C.ar    1  UNL1        0.0128
     40 C          62.8545   85.4218    8.8830 C.ar    1  UNL1        0.0208
@<TRIPOS>BOND
     1    19    20    2
     2    20    18    1
     3    18    15    1
     4     1    15    1
     5     1     2    1
     6     2     3    1
     7     3     4    1
     8     4     5    1
     9     5     7    1
    10     7     8   ar
    11     8     9   ar
    12     9    10    1
    13     9    11   ar
    14    11    12   ar
    15    12    13    1
    16    12    14   ar
    17     5     6    1
    18     6    31    1
    19    31    32    2
    20    31    33    2
    21    31    34    1
    22    34    35   ar
    23    35    36   ar
    24    36    37   ar
    25    37    38    1
    26    37    39   ar
    27    39    40   ar
    28    15    16    1
    29    16    17    1
    30    20    21   am
    31    21    22    1
    32    22    23    1
    33    23    24    1
    34    24    27    1
    35    27    28    1
    36    28    29    1
    37    24    25    1
    38    25    26    1
    39    17    15    1
    40    26    21    1
    41     6     1    1
    42    40    34   ar
    43    14     7   ar
    44    29    30    1
@<TRIPOS>MOLECULE
*****
 40 44 0 0 0
SMALL
GASTEIGER

@<TRIPOS>ATOM
      1 C          63.5969   90.2203   12.8887 C.3     1  UNL1        0.1164
      2 C          62.4809   89.7918   11.9827 C.3     1  UNL1        0.0213
      3 C          62.3799   90.3585   10.5976 C.3     1  UNL1        0.0033
      4 C          63.3950   91.3536   10.1185 C.3     1  UNL1        0.0223
      5 C          64.5110   91.7820   11.0245 C.3     1  UNL1        0.1019
      6 N          64.6120   91.2153   12.4096 N.3     1  UNL1       -0.1508
      7 C          65.5260   92.7771   10.5454 C.ar    1  UNL1       -0.0017
      8 C          65.1792   94.2354   10.4914 C.ar    1  UNL1        0.0269
      9 C          66.1943   95.2304   10.0123 C.ar    1  UNL1        0.1421
     10 F          65.8474   96.6888    9.9583 F       1  UNL1       -0.2041
     11 C          67.5561   94.7672    9.5872 C.ar    1  UNL1        0.0592
     12 C          67.9029   93.3089    9.6412 C.ar    1  UNL1        0.1421
     13 F          69.2648   92.8455    9.2160 F       1  UNL1       -0.2041
     14 C          66.8878   92.3138   10.1203 C.ar    1  UNL1        0.0269
     15 C          63.6979   89.6536   14.2740 C.3     1  UNL1        0.1525
     16 C          63.6365   89.5692   15.7703 C.3     1  UNL1        0.0452
     17 C          63.2653   90.8456   15.0752 C.3     1  UNL1        0.0452
     18 O          64.1657   88.2649   13.9537 O.3     1  UNL1       -0.4404
     19 O          63.9064   87.3442   16.3693 O.2     1  UNL1       -0.2262
     20 C          63.8481   87.1330   14.8854 C.2     1  UNL1        0.4048
     21 N          63.4723   85.7900   14.3333 N.am    1  UNL1       -0.2432
     22 C          63.4140   85.5787   12.8494 C.3     1  UNL1        0.1141
     23 C          63.0382   84.2356   12.2972 C.3     1  UNL1        0.0941
     24 N          62.7206   83.1038   13.2288 N.3     1  UNL1       -0.2676
     25 C          62.7789   83.3150   14.7127 C.3     1  UNL1        0.0941
     26 C          63.1547   84.6581   15.2650 C.3     1  UNL1        0.1141
     27 C          62.3448   81.7607   12.6767 C.3     1  UNL1        0.1043
     28 C          61.8602   80.6802   13.5973 C.3     1  UNL1        0.1544
     29 O          60.5506   80.8354   14.3122 O.3     1  UNL1       -0.3805
     30 H          60.6113   81.5704   14.9423 H       1  UNL1        0.2105
     31 S          65.7280   91.6437   13.3157 S.O2    1  UNL1        0.0636
     32 O          66.5842   90.6002   13.2952 O.2     1  UNL1       -0.1528
     33 O          65.0258   92.9455   13.5651 O.2     1  UNL1       -0.1528
     34 C          66.8440   92.0722   14.2218 C.ar    1  UNL1        0.1223
     35 C          66.5381   92.5839   15.5983 C.ar    1  UNL1        0.0208
     36 C          67.6540   93.0123   16.5044 C.ar    1  UNL1        0.0128
     37 C          69.0759   92.9290   16.0340 C.ar    1  UNL1        0.0578
     38 CL         70.1919   93.3575   16.9401 Cl      1  UNL1       -0.0822
     39 C          69.3819   92.4174   14.6577 C.ar    1  UNL1        0.0128
     40 C          68.2659   91.9889   13.7515 C.ar    1  UNL1        0.0208
@<TRIPOS>BOND
     1    19    20    2
     2    20    18    1
     3    18    15    1
     4     1    15    1
     5     1     2    1
     6     2     3    1
     7     3     4    1
     8     4     5    1
     9     5     7    1
    10     7     8   ar
    11     8     9   ar
    12     9    10    1
    13     9    11   ar
    14    11    12   ar
    15    12    13    1
    16    12    14   ar
    17     5     6    1
    18     6    31    1
    19    31    32    2
    20    31    33    2
    21    31    34    1
    22    34    35   ar
    23    35    36   ar
    24    36    37   ar
    25    37    38    1
    26    37    39   ar
    27    39    40   ar
    28    15    16    1
    29    16    17    1
    30    20    21   am
    31    21    22    1
    32    22    23    1
    33    23    24    1
    34    24    27    1
    35    27    28    1
    36    28    29    1
    37    24    25    1
    38    25    26    1
    39    17    15    1
    40    26    21    1
    41     6     1    1
    42    40    34   ar
    43    14     7   ar
    44    29    30    1
@<TRIPOS>MOLECULE
*****
 40 44 0 0 0
SMALL
GASTEIGER

@<TRIPOS>ATOM
      1 C          63.5894   95.6690   -0.6552 C.3     1  UNL1        0.1164
      2 C          64.9896   96.2053   -0.6125 C.3     1  UNL1        0.0213
      3 C          65.7359   96.4560   -1.8892 C.3     1  UNL1        0.0033
      4 C          65.0821   96.1704   -3.2087 C.3     1  UNL1        0.0223
      5 C          63.6820   95.6340   -3.2514 C.3     1  UNL1        0.1019
      6 N          62.9356   95.3833   -1.9747 N.3     1  UNL1       -0.1508
      7 C          63.0282   95.3484   -4.5709 C.ar    1  UNL1       -0.0017
      8 C          61.9069   96.2184   -5.0562 C.ar    1  UNL1        0.0269
      9 C          61.2531   95.9328   -6.3757 C.ar    1  UNL1        0.1421
     10 F          60.1318   96.8029   -6.8611 F       1  UNL1       -0.2041
     11 C          61.7206   94.7771   -7.2098 C.ar    1  UNL1        0.0592
     12 C          62.8419   93.9070   -6.7244 C.ar    1  UNL1        0.1421
     13 F          63.3095   92.7512   -7.5585 F       1  UNL1       -0.2041
     14 C          63.4957   94.1927   -5.4049 C.ar    1  UNL1        0.0269
     15 C          62.8430   95.4182    0.6215 C.3     1  UNL1        0.1525
     16 C          62.1911   95.6773    1.9474 C.3     1  UNL1        0.0452
     17 C          62.8560   96.7994    1.2065 C.3     1  UNL1        0.0452
     18 O          62.5707   93.9499    0.4799 O.3     1  UNL1       -0.4404
     19 O          64.2762   92.5278    1.8287 O.2     1  UNL1       -0.2262
     20 C          62.8746   93.0179    1.6153 C.2     1  UNL1        0.4048
     21 N          61.7771   92.5760    2.5372 N.am    1  UNL1       -0.2432
     22 C          60.3755   93.0661    2.3238 C.3     1  UNL1        0.1141
     23 C          59.2779   92.6242    3.2458 C.3     1  UNL1        0.0941
     24 N          59.5818   91.6922    4.3811 N.3     1  UNL1       -0.2676
     25 C          60.9833   91.2021    4.5945 C.3     1  UNL1        0.0941
     26 C          62.0810   91.6440    3.6726 C.3     1  UNL1        0.1141
     27 C          58.4842   91.2503    5.3031 C.3     1  UNL1        0.1043
     28 C          57.0514   91.5062    4.9403 C.3     1  UNL1        0.1544
     29 O          56.0124   90.4565    5.2021 O.3     1  UNL1       -0.3805
     30 H          56.1858   89.6832    4.6427 H       1  UNL1        0.2105
     31 S          61.5354   94.8469   -2.0174 S.O2    1  UNL1        0.0636
     32 O          61.6984   93.5260   -2.2433 O.2     1  UNL1       -0.1528
     33 O          60.9997   96.2258   -1.7693 O.2     1  UNL1       -0.1528
     34 C          60.1353   94.3106   -2.0601 C.ar    1  UNL1        0.1223
     35 C          59.2486   94.4319   -0.8562 C.ar    1  UNL1        0.0208
     36 C          57.8484   93.8956   -0.8989 C.ar    1  UNL1        0.0128
     37 C          57.3349   93.2379   -2.1454 C.ar    1  UNL1        0.0578
     38 CL         55.9347   92.7016   -2.1881 Cl      1  UNL1       -0.0822
     39 C          58.2215   93.1165   -3.3492 C.ar    1  UNL1        0.0128
     40 C          59.6217   93.6529   -3.3065 C.ar    1  UNL1        0.0208
@<TRIPOS>BOND
     1    19    20    2
     2    20    18    1
     3    18    15    1
     4     1    15    1
     5     1     2    1
     6     2     3    1
     7     3     4    1
     8     4     5    1
     9     5     7    1
    10     7     8   ar
    11     8     9   ar
    12     9    10    1
    13     9    11   ar
    14    11    12   ar
    15    12    13    1
    16    12    14   ar
    17     5     6    1
    18     6    31    1
    19    31    32    2
    20    31    33    2
    21    31    34    1
    22    34    35   ar
    23    35    36   ar
    24    36    37   ar
    25    37    38    1
    26    37    39   ar
    27    39    40   ar
    28    15    16    1
    29    16    17    1
    30    20    21   am
    31    21    22    1
    32    22    23    1
    33    23    24    1
    34    24    27    1
    35    27    28    1
    36    28    29    1
    37    24    25    1
    38    25    26    1
    39    17    15    1
    40    26    21    1
    41     6     1    1
    42    40    34   ar
    43    14     7   ar
    44    29    30    1
@<TRIPOS>MOLECULE
*****
 40 44 0 0 0
SMALL
GASTEIGER

@<TRIPOS>ATOM
      1 C          62.8185   89.7621   12.6584 C.3     1  UNL1        0.1164
      2 C          62.5802   91.1678   12.1924 C.3     1  UNL1        0.0213
      3 C          62.0115   91.4191   10.8273 C.3     1  UNL1        0.0033
      4 C          61.6812   90.2647    9.9283 C.3     1  UNL1        0.0223
      5 C          61.9195   88.8590   10.3943 C.3     1  UNL1        0.1019
      6 N          62.4882   88.6077   11.7594 N.3     1  UNL1       -0.1508
      7 C          61.5892   87.7046    9.4953 C.ar    1  UNL1       -0.0017
      8 C          60.1986   87.5486    8.9552 C.ar    1  UNL1        0.0269
      9 C          59.8683   86.3942    8.0561 C.ar    1  UNL1        0.1421
     10 F          58.4776   86.2383    7.5160 F       1  UNL1       -0.2041
     11 C          60.9286   85.3958    7.6973 C.ar    1  UNL1        0.0592
     12 C          62.3192   85.5517    8.2374 C.ar    1  UNL1        0.1421
     13 F          63.3796   84.5533    7.8786 F       1  UNL1       -0.2041
     14 C          62.6495   86.7061    9.1364 C.ar    1  UNL1        0.0269
     15 C          63.3872   89.5108   14.0236 C.3     1  UNL1        0.1525
     16 C          63.4578   89.1324   15.4733 C.3     1  UNL1        0.0452
     17 C          62.1505   89.0576   14.7415 C.3     1  UNL1        0.0452
     18 O          64.8212   89.8767   13.7796 O.3     1  UNL1       -0.4404
     19 O          65.5102   91.5364   15.6560 O.2     1  UNL1       -0.2262
     20 C          65.3338   91.2224   14.1999 C.2     1  UNL1        0.4048
     21 N          65.6698   92.2539   13.1641 N.am    1  UNL1       -0.2432
     22 C          65.4934   91.9399   11.7080 C.3     1  UNL1        0.1141
     23 C          65.8294   92.9715   10.6721 C.3     1  UNL1        0.0941
     24 N          66.3419   94.3170   11.0923 N.3     1  UNL1       -0.2676
     25 C          66.5184   94.6311   12.5484 C.3     1  UNL1        0.0941
     26 C          66.1824   93.5996   13.5843 C.3     1  UNL1        0.1141
     27 C          66.6780   95.3486   10.0565 C.3     1  UNL1        0.1043
     28 C          67.7233   95.0585    9.0206 C.3     1  UNL1        0.1544
     29 O          68.8123   94.0684    9.3108 O.3     1  UNL1       -0.3805
     30 H          69.3780   94.4090   10.0213 H       1  UNL1        0.2105
     31 S          62.7265   87.2020   12.2255 S.O2    1  UNL1        0.0636
     32 O          64.0278   87.1932   12.5848 O.2     1  UNL1       -0.1528
     33 O          61.2958   86.8616   11.9303 O.2     1  UNL1       -0.1528
     34 C          62.9648   85.7963   12.6916 C.ar    1  UNL1        0.1223
     35 C          63.7596   85.5442   13.9386 C.ar    1  UNL1        0.0208
     36 C          63.9979   84.1385   14.4047 C.ar    1  UNL1        0.0128
     37 C          63.4414   82.9849   13.6239 C.ar    1  UNL1        0.0578
     38 CL         63.6797   81.5793   14.0899 Cl      1  UNL1       -0.0822
     39 C          62.6467   83.2370   12.3769 C.ar    1  UNL1        0.0128
     40 C          62.4084   84.6428   11.9108 C.ar    1  UNL1        0.0208
@<TRIPOS>BOND
     1    19    20    2
     2    20    18    1
     3    18    15    1
     4     1    15    1
     5     1     2    1
     6     2     3    1
     7     3     4    1
     8     4     5    1
     9     5     7    1
    10     7     8   ar
    11     8     9   ar
    12     9    10    1
    13     9    11   ar
    14    11    12   ar
    15    12    13    1
    16    12    14   ar
    17     5     6    1
    18     6    31    1
    19    31    32    2
    20    31    33    2
    21    31    34    1
    22    34    35   ar
    23    35    36   ar
    24    36    37   ar
    25    37    38    1
    26    37    39   ar
    27    39    40   ar
    28    15    16    1
    29    16    17    1
    30    20    21   am
    31    21    22    1
    32    22    23    1
    33    23    24    1
    34    24    27    1
    35    27    28    1
    36    28    29    1
    37    24    25    1
    38    25    26    1
    39    17    15    1
    40    26    21    1
    41     6     1    1
    42    40    34   ar
    43    14     7   ar
    44    29    30    1
