@<TRIPOS>MOLECULE
*****
 23 26 0 0 0
SMALL
GASTEIGER

@<TRIPOS>ATOM
      1 O          65.0766   92.6285   13.6060 O.3     1  UNL1       -0.5055
      2 C          64.6076   91.2115   13.4571 C.ar    1  UNL1        0.1337
      3 C          65.0367   90.1714   14.4491 C.ar    1  UNL1        0.0366
      4 C          64.5677   88.7544   14.3002 C.ar    1  UNL1        0.0031
      5 C          63.6697   88.3775   13.1594 C.ar    1  UNL1        0.0010
      6 C          63.2007   86.9605   13.0106 C.ar    1  UNL1        0.0001
      7 C          62.3026   86.5837   11.8698 C.ar    1  UNL1        0.0009
      8 C          61.8736   87.6238   10.8777 C.ar    1  UNL1        0.0121
      9 C          62.3425   89.0408   11.0266 C.ar    1  UNL1        0.0578
     10 CL         61.9135   90.0809   10.0347 Cl      1  UNL1       -0.0822
     11 C          63.2406   89.4176   12.1675 C.ar    1  UNL1        0.0136
     12 C          63.7096   90.8346   12.3163 C.ar    1  UNL1        0.0375
     13 H          65.6376   92.8639   14.3186 H       1  UNL1        0.2922
     14 C          60.9755   87.2469    9.7369 C.ar    1  UNL1        0.0200
     15 C          59.5912   87.8185    9.6517 C.ar    1  UNL1        0.0989
     16 N          58.6932   87.4416    8.5109 N.ar    1  UNL1       -0.2423
     17 C          59.1794   86.4932    7.4553 C.ar    1  UNL1        0.0988
     18 C          60.5636   85.9217    7.5405 C.ar    1  UNL1        0.0192
     19 C          61.0497   84.9733    6.4850 C.ar    1  UNL1        0.0015
     20 C          62.4340   84.4018    6.5703 C.ar    1  UNL1        0.0000
     21 C          63.3320   84.7786    7.7111 C.ar    1  UNL1        0.0000
     22 C          62.8459   85.7270    8.7666 C.ar    1  UNL1        0.0001
     23 C          61.4617   86.2985    8.6814 C.ar    1  UNL1        0.0030
@<TRIPOS>BOND
     1     1     2    1
     2     2     3   ar
     3     3     4   ar
     4     4     5   ar
     5     5     6   ar
     6     6     7   ar
     7     7     8   ar
     8     8    14    1
     9    14    15   ar
    10    15    16   ar
    11    16    17   ar
    12    17    18   ar
    13    18    19   ar
    14    19    20   ar
    15    20    21   ar
    16    21    22   ar
    17    22    23   ar
    18     8     9   ar
    19     9    10    1
    20     9    11   ar
    21    11    12   ar
    22    12     2   ar
    23    11     5   ar
    24    23    14   ar
    25    23    18   ar
    26     1    13    1
@<TRIPOS>MOLECULE
*****
 23 26 0 0 0
SMALL
GASTEIGER

@<TRIPOS>ATOM
      1 O          65.4201   92.1610   14.5584 O.3     1  UNL1       -0.5055
      2 C          64.6742   91.1624   13.7238 C.ar    1  UNL1        0.1337
      3 C          63.9962   91.5993   12.4591 C.ar    1  UNL1        0.0366
      4 C          63.2503   90.6007   11.6245 C.ar    1  UNL1        0.0031
      5 C          63.1823   89.1653   12.0546 C.ar    1  UNL1        0.0010
      6 C          62.4364   88.1668   11.2201 C.ar    1  UNL1        0.0001
      7 C          62.3685   86.7314   11.6502 C.ar    1  UNL1        0.0009
      8 C          63.0465   86.2945   12.9149 C.ar    1  UNL1        0.0121
      9 C          63.7924   87.2931   13.7495 C.ar    1  UNL1        0.0578
     10 CL         64.4704   86.8562   15.0142 Cl      1  UNL1       -0.0822
     11 C          63.8603   88.7285   13.3193 C.ar    1  UNL1        0.0136
     12 C          64.6062   89.7271   14.1539 C.ar    1  UNL1        0.0375
     13 H          65.4625   93.0576   14.2897 H       1  UNL1        0.2922
     14 C          62.9785   84.8592   13.3450 C.ar    1  UNL1        0.0200
     15 C          62.6477   84.5173   14.7677 C.ar    1  UNL1        0.0989
     16 N          62.5798   83.0820   15.1978 N.ar    1  UNL1       -0.2423
     17 C          62.8426   81.9884   14.2053 C.ar    1  UNL1        0.0988
     18 C          63.1734   82.3301   12.7828 C.ar    1  UNL1        0.0192
     19 C          63.4362   81.2365   11.7903 C.ar    1  UNL1        0.0015
     20 C          63.7670   81.5784   10.3677 C.ar    1  UNL1        0.0000
     21 C          63.8350   83.0137    9.9376 C.ar    1  UNL1        0.0000
     22 C          63.5721   84.1073   10.9300 C.ar    1  UNL1        0.0001
     23 C          63.2414   83.7656   12.3526 C.ar    1  UNL1        0.0030
@<TRIPOS>BOND
     1     1     2    1
     2     2     3   ar
     3     3     4   ar
     4     4     5   ar
     5     5     6   ar
     6     6     7   ar
     7     7     8   ar
     8     8    14    1
     9    14    15   ar
    10    15    16   ar
    11    16    17   ar
    12    17    18   ar
    13    18    19   ar
    14    19    20   ar
    15    20    21   ar
    16    21    22   ar
    17    22    23   ar
    18     8     9   ar
    19     9    10    1
    20     9    11   ar
    21    11    12   ar
    22    12     2   ar
    23    11     5   ar
    24    23    14   ar
    25    23    18   ar
    26     1    13    1
@<TRIPOS>MOLECULE
*****
 23 26 0 0 0
SMALL
GASTEIGER

@<TRIPOS>ATOM
      1 O          62.3636   91.2201   10.1297 O.3     1  UNL1       -0.5055
      2 C          62.8943   90.3443   11.2258 C.ar    1  UNL1        0.1337
      3 C          63.7960   90.9210   12.2765 C.ar    1  UNL1        0.0366
      4 C          64.3267   90.0451   13.3725 C.ar    1  UNL1        0.0031
      5 C          63.9556   88.5925   13.4178 C.ar    1  UNL1        0.0010
      6 C          64.4862   87.7166   14.5138 C.ar    1  UNL1        0.0001
      7 C          64.1151   86.2640   14.5591 C.ar    1  UNL1        0.0009
      8 C          63.2133   85.6872   13.5083 C.ar    1  UNL1        0.0121
      9 C          62.6826   86.5631   12.4123 C.ar    1  UNL1        0.0578
     10 CL         61.7808   85.9863   11.3615 Cl      1  UNL1       -0.0822
     11 C          63.0538   88.0158   12.3670 C.ar    1  UNL1        0.0136
     12 C          62.5231   88.8916   11.2710 C.ar    1  UNL1        0.0375
     13 H          62.5955   92.1276   10.1015 H       1  UNL1        0.2922
     14 C          62.8421   84.2345   13.5535 C.ar    1  UNL1        0.0200
     15 C          62.1316   83.6789   14.7521 C.ar    1  UNL1        0.0989
     16 N          61.7605   82.2263   14.7974 N.ar    1  UNL1       -0.2423
     17 C          62.0998   81.3292   13.6441 C.ar    1  UNL1        0.0988
     18 C          62.8103   81.8847   12.4456 C.ar    1  UNL1        0.0192
     19 C          63.1497   80.9876   11.2923 C.ar    1  UNL1        0.0015
     20 C          63.8602   81.5433   10.0937 C.ar    1  UNL1        0.0000
     21 C          64.2313   82.9959   10.0484 C.ar    1  UNL1        0.0000
     22 C          63.8919   83.8930   11.2017 C.ar    1  UNL1        0.0001
     23 C          63.1815   83.3374   12.4003 C.ar    1  UNL1        0.0030
@<TRIPOS>BOND
     1     1     2    1
     2     2     3   ar
     3     3     4   ar
     4     4     5   ar
     5     5     6   ar
     6     6     7   ar
     7     7     8   ar
     8     8    14    1
     9    14    15   ar
    10    15    16   ar
    11    16    17   ar
    12    17    18   ar
    13    18    19   ar
    14    19    20   ar
    15    20    21   ar
    16    21    22   ar
    17    22    23   ar
    18     8     9   ar
    19     9    10    1
    20     9    11   ar
    21    11    12   ar
    22    12     2   ar
    23    11     5   ar
    24    23    14   ar
    25    23    18   ar
    26     1    13    1
@<TRIPOS>MOLECULE
*****
 23 26 0 0 0
SMALL
GASTEIGER

@<TRIPOS>ATOM
      1 O          62.5741   84.0792   11.2021 O.3     1  UNL1       -0.5055
      2 C          62.5960   85.5780   11.1469 C.ar    1  UNL1        0.1337
      3 C          62.0892   86.2912    9.9285 C.ar    1  UNL1        0.0366
      4 C          62.1111   87.7900    9.8733 C.ar    1  UNL1        0.0031
      5 C          62.6398   88.5757   11.0365 C.ar    1  UNL1        0.0010
      6 C          62.6617   90.0745   10.9813 C.ar    1  UNL1        0.0001
      7 C          63.1904   90.8602   12.1445 C.ar    1  UNL1        0.0009
      8 C          63.6972   90.1471   13.3630 C.ar    1  UNL1        0.0121
      9 C          63.6753   88.6483   13.4182 C.ar    1  UNL1        0.0578
     10 CL         64.1822   87.9351   14.6366 Cl      1  UNL1       -0.0822
     11 C          63.1466   87.8626   12.2549 C.ar    1  UNL1        0.0136
     12 C          63.1247   86.3637   12.3101 C.ar    1  UNL1        0.0375
     13 H          62.2438   83.5884   10.4754 H       1  UNL1        0.2922
     14 C          64.2260   90.9328   14.5262 C.ar    1  UNL1        0.0200
     15 C          63.3797   91.1220   15.7502 C.ar    1  UNL1        0.0989
     16 N          63.9084   91.9077   16.9134 N.ar    1  UNL1       -0.2423
     17 C          65.2834   92.5042   16.8527 C.ar    1  UNL1        0.0988
     18 C          66.1296   92.3150   15.6287 C.ar    1  UNL1        0.0192
     19 C          67.5046   92.9115   15.5680 C.ar    1  UNL1        0.0015
     20 C          68.3508   92.7223   14.3440 C.ar    1  UNL1        0.0000
     21 C          67.8221   91.9366   13.1808 C.ar    1  UNL1        0.0000
     22 C          66.4472   91.3401   13.2415 C.ar    1  UNL1        0.0001
     23 C          65.6009   91.5293   14.4654 C.ar    1  UNL1        0.0030
@<TRIPOS>BOND
     1     1     2    1
     2     2     3   ar
     3     3     4   ar
     4     4     5   ar
     5     5     6   ar
     6     6     7   ar
     7     7     8   ar
     8     8    14    1
     9    14    15   ar
    10    15    16   ar
    11    16    17   ar
    12    17    18   ar
    13    18    19   ar
    14    19    20   ar
    15    20    21   ar
    16    21    22   ar
    17    22    23   ar
    18     8     9   ar
    19     9    10    1
    20     9    11   ar
    21    11    12   ar
    22    12     2   ar
    23    11     5   ar
    24    23    14   ar
    25    23    18   ar
    26     1    13    1
@<TRIPOS>MOLECULE
*****
 23 26 0 0 0
SMALL
GASTEIGER

@<TRIPOS>ATOM
      1 O          60.4462   84.8735    7.1872 O.3     1  UNL1       -0.5055
      2 C          60.3219   86.2289    7.8175 C.ar    1  UNL1        0.1337
      3 C          59.3391   87.2223    7.2723 C.ar    1  UNL1        0.0366
      4 C          59.2149   88.5778    7.9026 C.ar    1  UNL1        0.0031
      5 C          60.0733   88.9399    9.0781 C.ar    1  UNL1        0.0010
      6 C          59.9491   90.2953    9.7084 C.ar    1  UNL1        0.0001
      7 C          60.8075   90.6574   10.8840 C.ar    1  UNL1        0.0009
      8 C          61.7903   89.6640   11.4293 C.ar    1  UNL1        0.0121
      9 C          61.9146   88.3085   10.7989 C.ar    1  UNL1        0.0578
     10 CL         62.8974   87.3151   11.3442 Cl      1  UNL1       -0.0822
     11 C          61.0561   87.9465    9.6234 C.ar    1  UNL1        0.0136
     12 C          61.1804   86.5910    8.9931 C.ar    1  UNL1        0.0375
     13 H          59.9099   84.6473    6.4529 H       1  UNL1        0.2922
     14 C          62.6488   90.0260   12.6048 C.ar    1  UNL1        0.0200
     15 C          62.3239   89.4852   13.9657 C.ar    1  UNL1        0.0989
     16 N          63.1823   89.8473   15.1412 N.ar    1  UNL1       -0.2423
     17 C          64.3658   90.7501   14.9559 C.ar    1  UNL1        0.0988
     18 C          64.6907   91.2909   13.5951 C.ar    1  UNL1        0.0192
     19 C          65.8742   92.1938   13.4098 C.ar    1  UNL1        0.0015
     20 C          66.1991   92.7346   12.0489 C.ar    1  UNL1        0.0000
     21 C          65.3406   92.3726   10.8733 C.ar    1  UNL1        0.0000
     22 C          64.1572   91.4697   11.0586 C.ar    1  UNL1        0.0001
     23 C          63.8322   90.9289   12.4195 C.ar    1  UNL1        0.0030
@<TRIPOS>BOND
     1     1     2    1
     2     2     3   ar
     3     3     4   ar
     4     4     5   ar
     5     5     6   ar
     6     6     7   ar
     7     7     8   ar
     8     8    14    1
     9    14    15   ar
    10    15    16   ar
    11    16    17   ar
    12    17    18   ar
    13    18    19   ar
    14    19    20   ar
    15    20    21   ar
    16    21    22   ar
    17    22    23   ar
    18     8     9   ar
    19     9    10    1
    20     9    11   ar
    21    11    12   ar
    22    12     2   ar
    23    11     5   ar
    24    23    14   ar
    25    23    18   ar
    26     1    13    1
@<TRIPOS>MOLECULE
*****
 23 26 0 0 0
SMALL
GASTEIGER

@<TRIPOS>ATOM
      1 O          58.6225   88.9659    6.8476 O.3     1  UNL1       -0.5055
      2 C          59.5522   88.3816    7.8694 C.ar    1  UNL1        0.1337
      3 C          59.8394   86.9094    7.8671 C.ar    1  UNL1        0.0366
      4 C          60.7691   86.3250    8.8890 C.ar    1  UNL1        0.0031
      5 C          61.4116   87.2128    9.9131 C.ar    1  UNL1        0.0010
      6 C          62.3413   86.6285   10.9349 C.ar    1  UNL1        0.0001
      7 C          62.9839   87.5163   11.9590 C.ar    1  UNL1        0.0009
      8 C          62.6967   88.9887   11.9613 C.ar    1  UNL1        0.0121
      9 C          61.7670   89.5730   10.9395 C.ar    1  UNL1        0.0578
     10 CL         61.4798   91.0452   10.9417 Cl      1  UNL1       -0.0822
     11 C          61.1244   88.6851    9.9153 C.ar    1  UNL1        0.0136
     12 C          60.1947   89.2694    8.8935 C.ar    1  UNL1        0.0375
     13 H          58.2211   88.4113    6.2078 H       1  UNL1        0.2922
     14 C          63.3392   89.8765   12.9854 C.ar    1  UNL1        0.0200
     15 C          63.0775   89.6495   14.4449 C.ar    1  UNL1        0.0989
     16 N          63.7201   90.5374   15.4690 N.ar    1  UNL1       -0.2423
     17 C          64.6243   91.6522   15.0337 C.ar    1  UNL1        0.0988
     18 C          64.8859   91.8793   13.5743 C.ar    1  UNL1        0.0192
     19 C          65.7901   92.9941   13.1390 C.ar    1  UNL1        0.0015
     20 C          66.0518   93.2211   11.6795 C.ar    1  UNL1        0.0000
     21 C          65.4093   92.3332   10.6554 C.ar    1  UNL1        0.0000
     22 C          64.5051   91.2184   11.0907 C.ar    1  UNL1        0.0001
     23 C          64.2434   90.9914   12.5501 C.ar    1  UNL1        0.0030
@<TRIPOS>BOND
     1     1     2    1
     2     2     3   ar
     3     3     4   ar
     4     4     5   ar
     5     5     6   ar
     6     6     7   ar
     7     7     8   ar
     8     8    14    1
     9    14    15   ar
    10    15    16   ar
    11    16    17   ar
    12    17    18   ar
    13    18    19   ar
    14    19    20   ar
    15    20    21   ar
    16    21    22   ar
    17    22    23   ar
    18     8     9   ar
    19     9    10    1
    20     9    11   ar
    21    11    12   ar
    22    12     2   ar
    23    11     5   ar
    24    23    14   ar
    25    23    18   ar
    26     1    13    1
@<TRIPOS>MOLECULE
*****
 23 26 0 0 0
SMALL
GASTEIGER

@<TRIPOS>ATOM
      1 O          63.5047   82.2884   15.3057 O.3     1  UNL1       -0.5055
      2 C          63.6028   82.6284   13.8480 C.ar    1  UNL1        0.1337
      3 C          64.4966   81.8263   12.9493 C.ar    1  UNL1        0.0366
      4 C          64.5947   82.1663   11.4916 C.ar    1  UNL1        0.0031
      5 C          63.7989   83.3084   10.9327 C.ar    1  UNL1        0.0010
      6 C          63.8970   83.6483    9.4750 C.ar    1  UNL1        0.0001
      7 C          63.1013   84.7904    8.9161 C.ar    1  UNL1        0.0009
      8 C          62.2074   85.5925    9.8148 C.ar    1  UNL1        0.0121
      9 C          62.1093   85.2526   11.2725 C.ar    1  UNL1        0.0578
     10 CL         61.2155   86.0546   12.1712 Cl      1  UNL1       -0.0822
     11 C          62.9051   84.1104   11.8314 C.ar    1  UNL1        0.0136
     12 C          62.8071   83.7705   13.2891 C.ar    1  UNL1        0.0375
     13 H          64.0018   81.5750   15.6549 H       1  UNL1        0.2922
     14 C          61.4117   86.7346    9.2558 C.ar    1  UNL1        0.0200
     15 C          60.3963   86.4857    8.1801 C.ar    1  UNL1        0.0989
     16 N          59.6005   87.6278    7.6212 N.ar    1  UNL1       -0.2423
     17 C          59.8201   89.0187    8.1379 C.ar    1  UNL1        0.0988
     18 C          60.8355   89.2676    9.2135 C.ar    1  UNL1        0.0192
     19 C          61.0551   90.6586    9.7302 C.ar    1  UNL1        0.0015
     20 C          62.0705   90.9075   10.8059 C.ar    1  UNL1        0.0000
     21 C          62.8662   89.7655   11.3649 C.ar    1  UNL1        0.0000
     22 C          62.6466   88.3745   10.8482 C.ar    1  UNL1        0.0001
     23 C          61.6313   88.1256    9.7725 C.ar    1  UNL1        0.0030
@<TRIPOS>BOND
     1     1     2    1
     2     2     3   ar
     3     3     4   ar
     4     4     5   ar
     5     5     6   ar
     6     6     7   ar
     7     7     8   ar
     8     8    14    1
     9    14    15   ar
    10    15    16   ar
    11    16    17   ar
    12    17    18   ar
    13    18    19   ar
    14    19    20   ar
    15    20    21   ar
    16    21    22   ar
    17    22    23   ar
    18     8     9   ar
    19     9    10    1
    20     9    11   ar
    21    11    12   ar
    22    12     2   ar
    23    11     5   ar
    24    23    14   ar
    25    23    18   ar
    26     1    13    1
@<TRIPOS>MOLECULE
*****
 23 26 0 0 0
SMALL
GASTEIGER

@<TRIPOS>ATOM
      1 O          66.8766   93.1239   16.4569 O.3     1  UNL1       -0.5055
      2 C          66.2937   92.8466   15.1029 C.ar    1  UNL1        0.1337
      3 C          66.4702   93.8397   13.9927 C.ar    1  UNL1        0.0366
      4 C          65.8873   93.5624   12.6387 C.ar    1  UNL1        0.0031
      5 C          65.1278   92.2920   12.3949 C.ar    1  UNL1        0.0010
      6 C          64.5449   92.0147   11.0409 C.ar    1  UNL1        0.0001
      7 C          63.7854   90.7444   10.7972 C.ar    1  UNL1        0.0009
      8 C          63.6089   89.7513   11.9075 C.ar    1  UNL1        0.0121
      9 C          64.1918   90.0286   13.2615 C.ar    1  UNL1        0.0578
     10 CL         64.0153   89.0356   14.3717 Cl      1  UNL1       -0.0822
     11 C          64.9513   91.2990   13.5052 C.ar    1  UNL1        0.0136
     12 C          65.5342   91.5763   14.8592 C.ar    1  UNL1        0.0375
     13 H          67.3510   93.9175   16.6092 H       1  UNL1        0.2922
     14 C          62.8494   88.4810   11.6637 C.ar    1  UNL1        0.0200
     15 C          63.1624   87.2539   12.4678 C.ar    1  UNL1        0.0989
     16 N          62.4030   85.9836   12.2241 N.ar    1  UNL1       -0.2423
     17 C          61.3305   85.9402   11.1762 C.ar    1  UNL1        0.0988
     18 C          61.0175   87.1672   10.3721 C.ar    1  UNL1        0.0192
     19 C          59.9451   87.1238    9.3243 C.ar    1  UNL1        0.0015
     20 C          59.6321   88.3508    8.5202 C.ar    1  UNL1        0.0000
     21 C          60.3916   89.6211    8.7639 C.ar    1  UNL1        0.0000
     22 C          61.4640   89.6645    9.8118 C.ar    1  UNL1        0.0001
     23 C          61.7770   88.4376   10.6159 C.ar    1  UNL1        0.0030
@<TRIPOS>BOND
     1     1     2    1
     2     2     3   ar
     3     3     4   ar
     4     4     5   ar
     5     5     6   ar
     6     6     7   ar
     7     7     8   ar
     8     8    14    1
     9    14    15   ar
    10    15    16   ar
    11    16    17   ar
    12    17    18   ar
    13    18    19   ar
    14    19    20   ar
    15    20    21   ar
    16    21    22   ar
    17    22    23   ar
    18     8     9   ar
    19     9    10    1
    20     9    11   ar
    21    11    12   ar
    22    12     2   ar
    23    11     5   ar
    24    23    14   ar
    25    23    18   ar
    26     1    13    1
@<TRIPOS>MOLECULE
*****
 23 26 0 0 0
SMALL
GASTEIGER

@<TRIPOS>ATOM
      1 O          66.8934   95.2519   11.5582 O.3     1  UNL1       -0.5055
      2 C          66.2784   94.0514   12.2142 C.ar    1  UNL1        0.1337
      3 C          66.6071   93.7256   13.6410 C.ar    1  UNL1        0.0366
      4 C          65.9921   92.5250   14.2971 C.ar    1  UNL1        0.0031
      5 C          65.0484   91.6502   13.5263 C.ar    1  UNL1        0.0010
      6 C          64.4334   90.4496   14.1824 C.ar    1  UNL1        0.0001
      7 C          63.4897   89.5748   13.4116 C.ar    1  UNL1        0.0009
      8 C          63.1610   89.9005   11.9848 C.ar    1  UNL1        0.0121
      9 C          63.7760   91.1011   11.3287 C.ar    1  UNL1        0.0578
     10 CL         63.4473   91.4269    9.9019 Cl      1  UNL1       -0.0822
     11 C          64.7197   91.9760   12.0995 C.ar    1  UNL1        0.0136
     12 C          65.3347   93.1765   11.4435 C.ar    1  UNL1        0.0375
     13 H          67.4829   95.7984   12.0396 H       1  UNL1        0.2922
     14 C          62.2173   89.0257   11.2140 C.ar    1  UNL1        0.0200
     15 C          61.2051   89.6419   10.2943 C.ar    1  UNL1        0.0989
     16 N          60.2614   88.7671    9.5236 N.ar    1  UNL1       -0.2423
     17 C          60.3299   87.2761    9.6725 C.ar    1  UNL1        0.0988
     18 C          61.3420   86.6599   10.5921 C.ar    1  UNL1        0.0192
     19 C          61.4105   85.1688   10.7410 C.ar    1  UNL1        0.0015
     20 C          62.4227   84.5527   11.6607 C.ar    1  UNL1        0.0000
     21 C          63.3664   85.4275   12.4315 C.ar    1  UNL1        0.0000
     22 C          63.2979   86.9185   12.2826 C.ar    1  UNL1        0.0001
     23 C          62.2858   87.5347   11.3629 C.ar    1  UNL1        0.0030
@<TRIPOS>BOND
     1     1     2    1
     2     2     3   ar
     3     3     4   ar
     4     4     5   ar
     5     5     6   ar
     6     6     7   ar
     7     7     8   ar
     8     8    14    1
     9    14    15   ar
    10    15    16   ar
    11    16    17   ar
    12    17    18   ar
    13    18    19   ar
    14    19    20   ar
    15    20    21   ar
    16    21    22   ar
    17    22    23   ar
    18     8     9   ar
    19     9    10    1
    20     9    11   ar
    21    11    12   ar
    22    12     2   ar
    23    11     5   ar
    24    23    14   ar
    25    23    18   ar
    26     1    13    1
