@<TRIPOS>MOLECULE
*****
 39 42 0 0 0
SMALL
GASTEIGER

@<TRIPOS>ATOM
      1 N          64.4481   91.1103   12.8304 N.pl3   1  UNL1       -0.3043
      2 C          64.4456   89.6134   12.9278 C.3     1  UNL1        0.1123
      3 C          63.5206   88.8073   12.0650 C.3     1  UNL1        0.1149
      4 N          62.5981   89.4980   11.1047 N.am    1  UNL1       -0.2747
      5 C          61.6731   88.6918   10.2419 C.2     1  UNL1        0.2442
      6 O          60.7507   89.3825    9.2817 O.2     1  UNL1       -0.2731
      7 C          62.6006   90.9948   11.0074 C.3     1  UNL1        0.1149
      8 C          63.5256   91.8010   11.8703 C.3     1  UNL1        0.1123
      9 C          66.2187   92.9947   13.0833 C.ar    1  UNL1        0.0073
     10 C          67.1436   93.8008   13.9462 C.ar    1  UNL1        0.0279
     11 C          67.2230   93.5286   15.4191 C.ar    1  UNL1        0.1400
     12 F          68.1480   94.3348   16.2820 F       1  UNL1       -0.2042
     13 C          66.3774   92.4503   16.0292 C.ar    1  UNL1        0.0309
     14 C          65.4525   91.6442   15.1663 C.ar    1  UNL1        0.0165
     15 C          65.3731   91.9164   13.6933 C.ar    1  UNL1        0.0453
     16 C          66.1393   93.2669   11.6103 C.3     1  UNL1        0.0749
     17 N          65.3158   94.4132   11.1028 N.3     1  UNL1       -0.3188
     18 H          65.3752   94.4503   10.0852 H       1  UNL1        0.1191
     19 H          65.6687   95.2858   11.4959 H       1  UNL1        0.1191
     20 C          66.8835   92.3928   10.6449 C.3     1  UNL1        0.0201
     21 C          67.7433   94.4778    9.3552 C.3     1  UNL1        0.0001
     22 C          67.8124   93.0067    9.6398 C.3     1  UNL1        0.0017
     23 C          68.8104   92.1494    8.9193 C.3     1  UNL1        0.0001
     24 C          61.6707   87.1950   10.3392 C.3     1  UNL1        0.1564
     25 N          61.7339   86.3622    9.0932 N.am    1  UNL1       -0.2727
     26 C          62.9530   85.6755    8.5526 C.3     1  UNL1        0.0943
     27 C          62.5617   84.9588    7.2943 C.3     1  UNL1        0.0311
     28 C          61.1007   85.2026    7.0572 C.3     1  UNL1        0.0870
     29 C          60.5891   86.0700    8.1690 C.2     1  UNL1        0.2260
     30 O          59.1801   86.5592    8.3285 O.2     1  UNL1       -0.2749
     31 C          61.6049   86.5308   11.6825 C.3     1  UNL1        0.0564
     32 C          62.3767   85.2694   11.9342 C.ar    1  UNL1       -0.0094
     33 C          62.1330   84.0586   11.0829 C.ar    1  UNL1       -0.0025
     34 C          62.9047   82.7973   11.3345 C.ar    1  UNL1        0.0111
     35 C          63.9201   82.7466   12.4373 C.ar    1  UNL1        0.0585
     36 CL         64.6919   81.4852   12.6889 Cl      1  UNL1       -0.0822
     37 C          64.1639   83.9574   13.2885 C.ar    1  UNL1        0.0225
     38 C          63.3922   85.2188   13.0370 C.ar    1  UNL1        0.0546
     39 CL         63.6359   86.4296   13.8882 Cl      1  UNL1       -0.0825
@<TRIPOS>BOND
     1    21    22    1
     2    22    23    1
     3    22    20    1
     4    20    16    1
     5    16    17    1
     6    16     9    1
     7     9    10   ar
     8    10    11   ar
     9    11    12    1
    10    11    13   ar
    11    13    14   ar
    12    14    15   ar
    13    15     1    1
    14     1     2    1
    15     2     3    1
    16     3     4    1
    17     4     5   am
    18     5     6    2
    19     5    24    1
    20    24    31    1
    21    31    32    1
    22    32    33   ar
    23    33    34   ar
    24    34    35   ar
    25    35    36    1
    26    35    37   ar
    27    37    38   ar
    28    38    39    1
    29    24    25    1
    30    25    26    1
    31    26    27    1
    32    27    28    1
    33    28    29    1
    34    29    30    2
    35     4     7    1
    36     7     8    1
    37    15     9   ar
    38     8     1    1
    39    38    32   ar
    40    29    25   am
    41    17    18    1
    42    17    19    1
@<TRIPOS>MOLECULE
*****
 39 42 0 0 0
SMALL
GASTEIGER

@<TRIPOS>ATOM
      1 N          61.8842   89.4293   10.6861 N.pl3   1  UNL1       -0.3043
      2 C          63.2605   89.8586   10.2718 C.3     1  UNL1        0.1123
      3 C          64.1630   90.5379   11.2586 C.3     1  UNL1        0.1149
      4 N          63.6893   90.7880   12.6598 N.am    1  UNL1       -0.2747
      5 C          64.5919   91.4673   13.6466 C.2     1  UNL1        0.2442
      6 O          64.1182   91.7174   15.0477 O.2     1  UNL1       -0.2731
      7 C          62.3131   90.3587   13.0741 C.3     1  UNL1        0.1149
      8 C          61.4105   89.6793   12.0872 C.3     1  UNL1        0.1123
      9 C          60.9146   87.2522    9.6516 C.ar    1  UNL1        0.0073
     10 C          60.0120   86.5729    8.6647 C.ar    1  UNL1        0.0279
     11 C          59.1766   87.3913    7.7255 C.ar    1  UNL1        0.1400
     12 F          58.2740   86.7120    6.7386 F       1  UNL1       -0.2042
     13 C          59.2436   88.8890    7.7731 C.ar    1  UNL1        0.0309
     14 C          60.1462   89.5683    8.7599 C.ar    1  UNL1        0.0165
     15 C          60.9816   88.7499    9.6992 C.ar    1  UNL1        0.0453
     16 C          61.7500   86.4338   10.5908 C.3     1  UNL1        0.0749
     17 N          61.2273   86.0901   11.9541 N.3     1  UNL1       -0.3188
     18 H          61.9208   85.5336   12.4538 H       1  UNL1        0.1191
     19 H          60.3639   85.5549   11.8622 H       1  UNL1        0.1191
     20 C          63.1082   85.9590   10.1668 C.3     1  UNL1        0.0201
     21 C          62.9658   84.8062    7.8428 C.3     1  UNL1        0.0001
     22 C          63.2415   84.7313    9.3154 C.3     1  UNL1        0.0017
     23 C          63.6506   83.4287    9.9365 C.3     1  UNL1        0.0001
     24 C          65.9682   91.8966   13.2324 C.3     1  UNL1        0.1564
     25 N          66.9370   92.4026   14.2596 N.am    1  UNL1       -0.2727
     26 C          67.8316   91.5590   15.1189 C.3     1  UNL1        0.0943
     27 C          68.6288   92.4760   15.9984 C.3     1  UNL1        0.0311
     28 C          68.2270   93.8863   15.6827 C.3     1  UNL1        0.0870
     29 C          67.1814   93.8409   14.6081 C.2     1  UNL1        0.2260
     30 O          66.4999   95.0259   13.9905 O.2     1  UNL1       -0.2749
     31 C          66.3756   91.8200   11.7908 C.3     1  UNL1        0.0564
     32 C          66.5838   93.0790   11.0023 C.ar    1  UNL1       -0.0094
     33 C          65.7554   94.2942   11.2971 C.ar    1  UNL1       -0.0025
     34 C          65.9636   95.5531   10.5086 C.ar    1  UNL1        0.0111
     35 C          67.0002   95.5968    9.4254 C.ar    1  UNL1        0.0585
     36 CL         67.2084   96.8558    8.6368 Cl      1  UNL1       -0.0822
     37 C          67.8286   94.3815    9.1306 C.ar    1  UNL1        0.0225
     38 C          67.6204   93.1226    9.9190 C.ar    1  UNL1        0.0546
     39 CL         68.4488   91.9074    9.6242 Cl      1  UNL1       -0.0825
@<TRIPOS>BOND
     1    21    22    1
     2    22    23    1
     3    22    20    1
     4    20    16    1
     5    16    17    1
     6    16     9    1
     7     9    10   ar
     8    10    11   ar
     9    11    12    1
    10    11    13   ar
    11    13    14   ar
    12    14    15   ar
    13    15     1    1
    14     1     2    1
    15     2     3    1
    16     3     4    1
    17     4     5   am
    18     5     6    2
    19     5    24    1
    20    24    31    1
    21    31    32    1
    22    32    33   ar
    23    33    34   ar
    24    34    35   ar
    25    35    36    1
    26    35    37   ar
    27    37    38   ar
    28    38    39    1
    29    24    25    1
    30    25    26    1
    31    26    27    1
    32    27    28    1
    33    28    29    1
    34    29    30    2
    35     4     7    1
    36     7     8    1
    37    15     9   ar
    38     8     1    1
    39    38    32   ar
    40    29    25   am
    41    17    18    1
    42    17    19    1
@<TRIPOS>MOLECULE
*****
 39 42 0 0 0
SMALL
GASTEIGER

@<TRIPOS>ATOM
      1 N          63.4279   85.2582   14.1948 N.pl3   1  UNL1       -0.3043
      2 C          63.9816   86.3332   13.3072 C.3     1  UNL1        0.1123
      3 C          64.1297   87.7325   13.8268 C.3     1  UNL1        0.1149
      4 N          63.7241   88.0569   15.2340 N.am    1  UNL1       -0.2747
      5 C          63.8722   89.4562   15.7536 C.2     1  UNL1        0.2442
      6 O          63.4665   89.7805   17.1608 O.2     1  UNL1       -0.2731
      7 C          63.1703   86.9819   16.1217 C.3     1  UNL1        0.1149
      8 C          63.0222   85.5826   15.6020 C.3     1  UNL1        0.1123
      9 C          62.7853   83.6260   12.2784 C.ar    1  UNL1        0.0073
     10 C          62.6372   82.2267   11.7588 C.ar    1  UNL1        0.0279
     11 C          62.9836   81.0603   12.6361 C.ar    1  UNL1        0.1400
     12 F          62.8355   79.6609   12.1164 F       1  UNL1       -0.2042
     13 C          63.4781   81.2932   14.0329 C.ar    1  UNL1        0.0309
     14 C          63.6262   82.6925   14.5525 C.ar    1  UNL1        0.0165
     15 C          63.2798   83.8589   13.6752 C.ar    1  UNL1        0.0453
     16 C          62.4389   84.7923   11.4011 C.3     1  UNL1        0.0749
     17 N          61.4091   85.7872   11.8480 N.3     1  UNL1       -0.3188
     18 H          61.3004   86.5079   11.1344 H       1  UNL1        0.1191
     19 H          61.7091   86.2174   12.7228 H       1  UNL1        0.1191
     20 C          63.1223   84.9638   10.0769 C.3     1  UNL1        0.0201
     21 C          62.2286   85.1819    7.6471 C.3     1  UNL1        0.0001
     22 C          62.4752   85.7825    8.9994 C.3     1  UNL1        0.0017
     23 C          62.0746   87.2016    9.2741 C.3     1  UNL1        0.0001
     24 C          64.4259   90.5311   14.8660 C.3     1  UNL1        0.1564
     25 N          65.6751   91.2610   15.2618 N.am    1  UNL1       -0.2727
     26 C          67.0500   91.0170   14.7138 C.3     1  UNL1        0.0943
     27 C          67.9935   91.9682   15.3884 C.3     1  UNL1        0.0311
     28 C          67.2017   92.8002   16.3533 C.3     1  UNL1        0.0870
     29 C          65.7688   92.3631   16.2750 C.2     1  UNL1        0.2260
     30 O          64.6298   92.9288   17.0704 O.2     1  UNL1       -0.2749
     31 C          63.7304   90.8762   13.5826 C.3     1  UNL1        0.0564
     32 C          64.4256   91.7212   12.5565 C.ar    1  UNL1       -0.0094
     33 C          65.4267   92.7519   12.9871 C.ar    1  UNL1       -0.0025
     34 C          66.1218   93.5969   11.9611 C.ar    1  UNL1        0.0111
     35 C          65.8159   93.4112   10.5045 C.ar    1  UNL1        0.0585
     36 CL         66.5110   94.2562    9.4784 Cl      1  UNL1       -0.0822
     37 C          64.8148   92.3805   10.0738 C.ar    1  UNL1        0.0225
     38 C          64.1197   91.5355   11.0998 C.ar    1  UNL1        0.0546
     39 CL         63.1186   90.5047   10.6692 Cl      1  UNL1       -0.0825
@<TRIPOS>BOND
     1    21    22    1
     2    22    23    1
     3    22    20    1
     4    20    16    1
     5    16    17    1
     6    16     9    1
     7     9    10   ar
     8    10    11   ar
     9    11    12    1
    10    11    13   ar
    11    13    14   ar
    12    14    15   ar
    13    15     1    1
    14     1     2    1
    15     2     3    1
    16     3     4    1
    17     4     5   am
    18     5     6    2
    19     5    24    1
    20    24    31    1
    21    31    32    1
    22    32    33   ar
    23    33    34   ar
    24    34    35   ar
    25    35    36    1
    26    35    37   ar
    27    37    38   ar
    28    38    39    1
    29    24    25    1
    30    25    26    1
    31    26    27    1
    32    27    28    1
    33    28    29    1
    34    29    30    2
    35     4     7    1
    36     7     8    1
    37    15     9   ar
    38     8     1    1
    39    38    32   ar
    40    29    25   am
    41    17    18    1
    42    17    19    1
@<TRIPOS>MOLECULE
*****
 39 42 0 0 0
SMALL
GASTEIGER

@<TRIPOS>ATOM
      1 N          62.1892   89.5622   11.2287 N.pl3   1  UNL1       -0.3043
      2 C          63.3271   90.4281   10.7754 C.3     1  UNL1        0.1123
      3 C          64.1253   91.2045   11.7805 C.3     1  UNL1        0.1149
      4 N          63.7856   91.1149   13.2388 N.am    1  UNL1       -0.2747
      5 C          64.5839   91.8912   14.2438 C.2     1  UNL1        0.2442
      6 O          64.2442   91.8016   15.7021 O.2     1  UNL1       -0.2731
      7 C          62.6478   90.2490   13.6920 C.3     1  UNL1        0.1149
      8 C          61.8495   89.4726   12.6869 C.3     1  UNL1        0.1123
      9 C          61.4227   87.2863   10.2373 C.ar    1  UNL1        0.0073
     10 C          60.6245   86.5100    9.2323 C.ar    1  UNL1        0.0279
     11 C          59.7946   87.2333    8.2134 C.ar    1  UNL1        0.1400
     12 F          58.9964   86.4570    7.2083 F       1  UNL1       -0.2042
     13 C          59.7629   88.7329    8.1996 C.ar    1  UNL1        0.0309
     14 C          60.5611   89.5092    9.2047 C.ar    1  UNL1        0.0165
     15 C          61.3910   88.7859   10.2235 C.ar    1  UNL1        0.0453
     16 C          62.2526   86.5630   11.2562 C.3     1  UNL1        0.0749
     17 N          63.2648   87.3142   12.0692 N.3     1  UNL1       -0.3188
     18 H          63.7339   86.6710   12.7068 H       1  UNL1        0.1191
     19 H          62.7959   88.0437   12.6063 H       1  UNL1        0.1191
     20 C          62.0703   85.0884   11.4621 C.3     1  UNL1        0.0201
     21 C          63.7694   83.6512   10.1213 C.3     1  UNL1        0.0001
     22 C          63.2591   84.1742   11.4314 C.3     1  UNL1        0.0017
     23 C          63.9376   83.7830   12.7106 C.3     1  UNL1        0.0001
     24 C          65.7217   92.7571   13.7906 C.3     1  UNL1        0.1564
     25 N          66.9561   92.8759   14.6344 N.am    1  UNL1       -0.2727
     26 C          67.6326   94.1543   15.0323 C.3     1  UNL1        0.0943
     27 C          68.8254   93.8057   15.8723 C.3     1  UNL1        0.0311
     28 C          68.8862   92.3118   15.9937 C.3     1  UNL1        0.0870
     29 C          67.7309   91.7372   15.2286 C.2     1  UNL1        0.2260
     30 O          67.4072   90.2797   15.0833 O.2     1  UNL1       -0.2749
     31 C          65.6252   93.5043   12.4936 C.3     1  UNL1        0.0564
     32 C          66.5777   93.1947   11.3769 C.ar    1  UNL1       -0.0094
     33 C          67.4580   91.9827   11.4564 C.ar    1  UNL1       -0.0025
     34 C          68.4105   91.6730   10.3398 C.ar    1  UNL1        0.0111
     35 C          68.4827   92.5753    9.1437 C.ar    1  UNL1        0.0585
     36 CL         69.4352   92.2656    8.0271 Cl      1  UNL1       -0.0822
     37 C          67.6024   93.7872    9.0642 C.ar    1  UNL1        0.0225
     38 C          66.6499   94.0969   10.1808 C.ar    1  UNL1        0.0546
     39 CL         65.7697   95.3088   10.1013 Cl      1  UNL1       -0.0825
@<TRIPOS>BOND
     1    21    22    1
     2    22    23    1
     3    22    20    1
     4    20    16    1
     5    16    17    1
     6    16     9    1
     7     9    10   ar
     8    10    11   ar
     9    11    12    1
    10    11    13   ar
    11    13    14   ar
    12    14    15   ar
    13    15     1    1
    14     1     2    1
    15     2     3    1
    16     3     4    1
    17     4     5   am
    18     5     6    2
    19     5    24    1
    20    24    31    1
    21    31    32    1
    22    32    33   ar
    23    33    34   ar
    24    34    35   ar
    25    35    36    1
    26    35    37   ar
    27    37    38   ar
    28    38    39    1
    29    24    25    1
    30    25    26    1
    31    26    27    1
    32    27    28    1
    33    28    29    1
    34    29    30    2
    35     4     7    1
    36     7     8    1
    37    15     9   ar
    38     8     1    1
    39    38    32   ar
    40    29    25   am
    41    17    18    1
    42    17    19    1
@<TRIPOS>MOLECULE
*****
 39 42 0 0 0
SMALL
GASTEIGER

@<TRIPOS>ATOM
      1 N          63.1946   86.3024   12.9350 N.pl3   1  UNL1       -0.3043
      2 C          64.2688   86.9649   13.7457 C.3     1  UNL1        0.1123
      3 C          64.5592   88.4242   13.5560 C.3     1  UNL1        0.1149
      4 N          63.7754   89.2211   12.5556 N.am    1  UNL1       -0.2747
      5 C          64.0658   90.6804   12.3659 C.2     1  UNL1        0.2442
      6 O          63.2820   91.4772   11.3656 O.2     1  UNL1       -0.2731
      7 C          62.7012   88.5586   11.7449 C.3     1  UNL1        0.1149
      8 C          62.4108   87.0992   11.9347 C.3     1  UNL1        0.1123
      9 C          62.9739   84.2363   14.4948 C.ar    1  UNL1        0.0073
     10 C          62.6836   82.7770   14.6845 C.ar    1  UNL1        0.0279
     11 C          62.3235   81.9243   13.5041 C.ar    1  UNL1        0.1400
     12 F          62.0331   80.4650   13.6938 F       1  UNL1       -0.2042
     13 C          62.2538   82.5310   12.1341 C.ar    1  UNL1        0.0309
     14 C          62.5441   83.9903   11.9444 C.ar    1  UNL1        0.0165
     15 C          62.9042   84.8430   13.1248 C.ar    1  UNL1        0.0453
     16 C          63.3340   85.0890   15.6752 C.3     1  UNL1        0.0749
     17 N          64.7705   85.2437   16.0783 N.3     1  UNL1       -0.3188
     18 H          64.8310   85.8527   16.8943 H       1  UNL1        0.1191
     19 H          65.2976   85.6544   15.3077 H       1  UNL1        0.1191
     20 C          62.2577   85.7870   16.4524 C.3     1  UNL1        0.0201
     21 C          62.6743   86.6184   18.8784 C.3     1  UNL1        0.0001
     22 C          62.6150   86.8898   17.4043 C.3     1  UNL1        0.0017
     23 C          62.9130   88.2641   16.8822 C.3     1  UNL1        0.0001
     24 C          65.1400   91.3429   13.1766 C.3     1  UNL1        0.1564
     25 N          64.9063   91.6451   14.6271 N.am    1  UNL1       -0.2727
     26 C          63.7051   91.2408   15.4296 C.3     1  UNL1        0.0943
     27 C          63.8891   91.7505   16.8283 C.3     1  UNL1        0.0311
     28 C          65.2039   92.4698   16.8904 C.3     1  UNL1        0.0870
     29 C          65.8326   92.4046   15.5299 C.2     1  UNL1        0.2260
     30 O          67.1553   92.9953   15.1407 O.2     1  UNL1       -0.2749
     31 C          66.4479   91.7033   12.5368 C.3     1  UNL1        0.0564
     32 C          66.5582   92.9458   11.7037 C.ar    1  UNL1       -0.0094
     33 C          65.9355   94.2251   12.1789 C.ar    1  UNL1       -0.0025
     34 C          66.0458   95.4676   11.3459 C.ar    1  UNL1        0.0111
     35 C          66.7788   95.4309   10.0378 C.ar    1  UNL1        0.0585
     36 CL         66.8891   96.6735    9.2047 Cl      1  UNL1       -0.0822
     37 C          67.4015   94.1517    9.5626 C.ar    1  UNL1        0.0225
     38 C          67.2912   92.9092   10.3956 C.ar    1  UNL1        0.0546
     39 CL         67.9139   91.6299    9.9204 Cl      1  UNL1       -0.0825
@<TRIPOS>BOND
     1    21    22    1
     2    22    23    1
     3    22    20    1
     4    20    16    1
     5    16    17    1
     6    16     9    1
     7     9    10   ar
     8    10    11   ar
     9    11    12    1
    10    11    13   ar
    11    13    14   ar
    12    14    15   ar
    13    15     1    1
    14     1     2    1
    15     2     3    1
    16     3     4    1
    17     4     5   am
    18     5     6    2
    19     5    24    1
    20    24    31    1
    21    31    32    1
    22    32    33   ar
    23    33    34   ar
    24    34    35   ar
    25    35    36    1
    26    35    37   ar
    27    37    38   ar
    28    38    39    1
    29    24    25    1
    30    25    26    1
    31    26    27    1
    32    27    28    1
    33    28    29    1
    34    29    30    2
    35     4     7    1
    36     7     8    1
    37    15     9   ar
    38     8     1    1
    39    38    32   ar
    40    29    25   am
    41    17    18    1
    42    17    19    1
@<TRIPOS>MOLECULE
*****
 39 42 0 0 0
SMALL
GASTEIGER

@<TRIPOS>ATOM
      1 N          63.2526   84.8969   13.5623 N.pl3   1  UNL1       -0.3043
      2 C          62.5735   85.8956   12.6727 C.3     1  UNL1        0.1123
      3 C          62.9066   87.3534   12.7905 C.3     1  UNL1        0.1149
      4 N          63.9189   87.8124   13.7978 N.am    1  UNL1       -0.2747
      5 C          64.2521   89.2702   13.9156 C.2     1  UNL1        0.2442
      6 O          65.2643   89.7292   14.9229 O.2     1  UNL1       -0.2731
      7 C          64.5980   86.8137   14.6873 C.3     1  UNL1        0.1149
      8 C          64.2648   85.3558   14.5695 C.3     1  UNL1        0.1123
      9 C          63.3423   82.6689   12.2288 C.ar    1  UNL1        0.0073
     10 C          63.0091   81.2111   12.1110 C.ar    1  UNL1        0.0279
     11 C          62.2529   80.5236   13.2090 C.ar    1  UNL1        0.1400
     12 F          61.9197   79.0657   13.0912 F       1  UNL1       -0.2042
     13 C          61.8300   81.2937   14.4247 C.ar    1  UNL1        0.0309
     14 C          62.1632   82.7514   14.5424 C.ar    1  UNL1        0.0165
     15 C          62.9194   83.4390   13.4445 C.ar    1  UNL1        0.0453
     16 C          64.0984   83.3565   11.1308 C.3     1  UNL1        0.0749
     17 N          65.4447   83.9564   11.4090 N.3     1  UNL1       -0.3188
     18 H          65.8113   84.3793   10.5563 H       1  UNL1        0.1191
     19 H          66.0825   83.2272   11.7282 H       1  UNL1        0.1191
     20 C          63.5082   83.4442    9.7546 C.3     1  UNL1        0.0201
     21 C          63.2474   85.4161    8.0833 C.3     1  UNL1        0.0001
     22 C          62.8014   84.6937    9.3199 C.3     1  UNL1        0.0017
     23 C          61.6485   85.2209   10.1218 C.3     1  UNL1        0.0001
     24 C          63.5730   90.2690   13.0260 C.3     1  UNL1        0.1564
     25 N          64.3780   91.3351   12.3438 N.am    1  UNL1       -0.2727
     26 C          64.4615   91.5655   10.8639 C.3     1  UNL1        0.0943
     27 C          65.3759   92.7307   10.6271 C.3     1  UNL1        0.0311
     28 C          65.8575   93.2205   11.9606 C.3     1  UNL1        0.0870
     29 C          65.2407   92.3579   13.0216 C.2     1  UNL1        0.2260
     30 O          65.4500   92.4943   14.5007 O.2     1  UNL1       -0.2749
     31 C          62.0889   90.2017   12.8187 C.3     1  UNL1        0.0564
     32 C          61.5332   89.5800   11.5718 C.ar    1  UNL1       -0.0094
     33 C          62.4377   89.2909   10.4106 C.ar    1  UNL1       -0.0025
     34 C          61.8821   88.6693    9.1637 C.ar    1  UNL1        0.0111
     35 C          60.4220   88.3368    9.0780 C.ar    1  UNL1        0.0585
     36 CL         59.8663   87.7151    7.8310 Cl      1  UNL1       -0.0822
     37 C          59.5175   88.6259   10.2391 C.ar    1  UNL1        0.0225
     38 C          60.0731   89.2475   11.4860 C.ar    1  UNL1        0.0546
     39 CL         59.1686   89.5366   12.6472 Cl      1  UNL1       -0.0825
@<TRIPOS>BOND
     1    21    22    1
     2    22    23    1
     3    22    20    1
     4    20    16    1
     5    16    17    1
     6    16     9    1
     7     9    10   ar
     8    10    11   ar
     9    11    12    1
    10    11    13   ar
    11    13    14   ar
    12    14    15   ar
    13    15     1    1
    14     1     2    1
    15     2     3    1
    16     3     4    1
    17     4     5   am
    18     5     6    2
    19     5    24    1
    20    24    31    1
    21    31    32    1
    22    32    33   ar
    23    33    34   ar
    24    34    35   ar
    25    35    36    1
    26    35    37   ar
    27    37    38   ar
    28    38    39    1
    29    24    25    1
    30    25    26    1
    31    26    27    1
    32    27    28    1
    33    28    29    1
    34    29    30    2
    35     4     7    1
    36     7     8    1
    37    15     9   ar
    38     8     1    1
    39    38    32   ar
    40    29    25   am
    41    17    18    1
    42    17    19    1
@<TRIPOS>MOLECULE
*****
 39 42 0 0 0
SMALL
GASTEIGER

@<TRIPOS>ATOM
      1 N          63.3729   85.2118   13.3842 N.pl3   1  UNL1       -0.3043
      2 C          63.0010   86.1956   12.3148 C.3     1  UNL1        0.1123
      3 C          63.2488   87.6601   12.5239 C.3     1  UNL1        0.1149
      4 N          63.8686   88.1408   13.8026 N.am    1  UNL1       -0.2747
      5 C          64.1164   89.6053   14.0117 C.2     1  UNL1        0.2442
      6 O          64.7362   90.0860   15.2903 O.2     1  UNL1       -0.2731
      7 C          64.2405   87.1570   14.8721 C.3     1  UNL1        0.1149
      8 C          63.9926   85.6924   14.6629 C.3     1  UNL1        0.1123
      9 C          63.0170   83.1960   11.7842 C.ar    1  UNL1        0.0073
     10 C          62.7691   81.7315   11.5751 C.ar    1  UNL1        0.0279
     11 C          62.6293   80.8182   12.7568 C.ar    1  UNL1        0.1400
     12 F          62.3814   79.3537   12.5476 F       1  UNL1       -0.2042
     13 C          62.7373   81.3694   14.1476 C.ar    1  UNL1        0.0309
     14 C          62.9852   82.8339   14.3567 C.ar    1  UNL1        0.0165
     15 C          63.1250   83.7472   13.1750 C.ar    1  UNL1        0.0453
     16 C          63.1568   84.1093   10.6025 C.3     1  UNL1        0.0749
     17 N          64.3952   84.0585    9.7578 N.3     1  UNL1       -0.3188
     18 H          64.3210   84.7419    9.0042 H       1  UNL1        0.1191
     19 H          64.4980   83.1245    9.3609 H       1  UNL1        0.1191
     20 C          62.0581   85.0733   10.2656 C.3     1  UNL1        0.0201
     21 C          60.6705   86.3582    8.4841 C.3     1  UNL1        0.0001
     22 C          61.8573   85.5154    8.8464 C.3     1  UNL1        0.0017
     23 C          62.8434   85.1148    7.7894 C.3     1  UNL1        0.0001
     24 C          63.7446   90.5892   12.9423 C.3     1  UNL1        0.1564
     25 N          62.7045   90.2310   11.9225 N.am    1  UNL1       -0.2727
     26 C          62.9122   90.1605   10.4385 C.3     1  UNL1        0.0943
     27 C          61.6103   89.7664    9.8064 C.3     1  UNL1        0.0311
     28 C          60.5978   89.5932   10.8997 C.3     1  UNL1        0.0870
     29 C          61.2742   89.8804   12.2075 C.2     1  UNL1        0.2260
     30 O          60.6327   89.8265   13.5623 O.2     1  UNL1       -0.2749
     31 C          64.4127   91.9312   12.8926 C.3     1  UNL1        0.0564
     32 C          65.6069   92.1423   12.0097 C.ar    1  UNL1       -0.0094
     33 C          65.4193   92.5637   10.5824 C.ar    1  UNL1       -0.0025
     34 C          66.6134   92.7748    9.6996 C.ar    1  UNL1        0.0111
     35 C          67.9951   92.5645   10.2440 C.ar    1  UNL1        0.0585
     36 CL         69.1893   92.7756    9.3612 Cl      1  UNL1       -0.0822
     37 C          68.1828   92.1431   11.6713 C.ar    1  UNL1        0.0225
     38 C          66.9887   91.9320   12.5542 C.ar    1  UNL1        0.0546
     39 CL         67.1763   91.5106   13.9815 Cl      1  UNL1       -0.0825
@<TRIPOS>BOND
     1    21    22    1
     2    22    23    1
     3    22    20    1
     4    20    16    1
     5    16    17    1
     6    16     9    1
     7     9    10   ar
     8    10    11   ar
     9    11    12    1
    10    11    13   ar
    11    13    14   ar
    12    14    15   ar
    13    15     1    1
    14     1     2    1
    15     2     3    1
    16     3     4    1
    17     4     5   am
    18     5     6    2
    19     5    24    1
    20    24    31    1
    21    31    32    1
    22    32    33   ar
    23    33    34   ar
    24    34    35   ar
    25    35    36    1
    26    35    37   ar
    27    37    38   ar
    28    38    39    1
    29    24    25    1
    30    25    26    1
    31    26    27    1
    32    27    28    1
    33    28    29    1
    34    29    30    2
    35     4     7    1
    36     7     8    1
    37    15     9   ar
    38     8     1    1
    39    38    32   ar
    40    29    25   am
    41    17    18    1
    42    17    19    1
@<TRIPOS>MOLECULE
*****
 39 42 0 0 0
SMALL
GASTEIGER

@<TRIPOS>ATOM
      1 N          63.3621   85.0992   13.4392 N.pl3   1  UNL1       -0.3043
      2 C          62.9065   86.0833   12.4028 C.3     1  UNL1        0.1123
      3 C          63.2038   87.5436   12.5733 C.3     1  UNL1        0.1149
      4 N          63.9568   88.0199   13.7801 N.am    1  UNL1       -0.2747
      5 C          64.2542   89.4802   13.9505 C.2     1  UNL1        0.2442
      6 O          65.0071   89.9563   15.1572 O.2     1  UNL1       -0.2731
      7 C          64.4124   87.0358   14.8164 C.3     1  UNL1        0.1149
      8 C          64.1150   85.5754   14.6459 C.3     1  UNL1        0.1123
      9 C          63.0194   83.0381   11.8951 C.ar    1  UNL1        0.0073
     10 C          62.7220   81.5778   11.7246 C.ar    1  UNL1        0.0279
     11 C          62.4700   80.7183   12.9279 C.ar    1  UNL1        0.1400
     12 F          62.1726   79.2579   12.7574 F       1  UNL1       -0.2042
     13 C          62.5154   81.3191   14.3015 C.ar    1  UNL1        0.0309
     14 C          62.8127   82.7793   14.4719 C.ar    1  UNL1        0.0165
     15 C          63.0647   83.6388   13.2687 C.ar    1  UNL1        0.0453
     16 C          63.2713   83.8976   10.6918 C.3     1  UNL1        0.0749
     17 N          64.6504   83.9855   10.1084 N.3     1  UNL1       -0.3188
     18 H          64.6391   84.6091    9.3014 H       1  UNL1        0.1191
     19 H          64.9559   83.0571    9.8165 H       1  UNL1        0.1191
     20 C          62.1443   84.6692   10.0720 C.3     1  UNL1        0.0201
     21 C          62.7639   84.9800    7.5681 C.3     1  UNL1        0.0001
     22 C          62.4062   85.5687    8.9006 C.3     1  UNL1        0.0017
     23 C          62.3103   87.0569    9.0616 C.3     1  UNL1        0.0001
     24 C          63.7986   90.4643   12.9142 C.3     1  UNL1        0.1564
     25 N          62.4619   90.2944   12.2549 N.am    1  UNL1       -0.2727
     26 C          61.2076   89.8067   12.9175 C.3     1  UNL1        0.0943
     27 C          60.1154   89.7934   11.8895 C.3     1  UNL1        0.0311
     28 C          60.6946   90.2728   10.5915 C.3     1  UNL1        0.0870
     29 C          62.1449   90.5825   10.8174 C.2     1  UNL1        0.2260
     30 O          63.1088   91.0909    9.7867 O.2     1  UNL1       -0.2749
     31 C          64.6796   91.6182   12.5370 C.3     1  UNL1        0.0564
     32 C          65.7782   92.0559   13.4598 C.ar    1  UNL1       -0.0094
     33 C          65.4632   92.4246   14.8792 C.ar    1  UNL1       -0.0025
     34 C          66.5618   92.8623   15.8020 C.ar    1  UNL1        0.0111
     35 C          67.9754   92.9312   15.3052 C.ar    1  UNL1        0.0585
     36 CL         69.0741   93.3689   16.2280 Cl      1  UNL1       -0.0822
     37 C          68.2905   92.5625   13.8858 C.ar    1  UNL1        0.0225
     38 C          67.1919   92.1248   12.9631 C.ar    1  UNL1        0.0546
     39 CL         67.5070   91.7561   11.5437 Cl      1  UNL1       -0.0825
@<TRIPOS>BOND
     1    21    22    1
     2    22    23    1
     3    22    20    1
     4    20    16    1
     5    16    17    1
     6    16     9    1
     7     9    10   ar
     8    10    11   ar
     9    11    12    1
    10    11    13   ar
    11    13    14   ar
    12    14    15   ar
    13    15     1    1
    14     1     2    1
    15     2     3    1
    16     3     4    1
    17     4     5   am
    18     5     6    2
    19     5    24    1
    20    24    31    1
    21    31    32    1
    22    32    33   ar
    23    33    34   ar
    24    34    35   ar
    25    35    36    1
    26    35    37   ar
    27    37    38   ar
    28    38    39    1
    29    24    25    1
    30    25    26    1
    31    26    27    1
    32    27    28    1
    33    28    29    1
    34    29    30    2
    35     4     7    1
    36     7     8    1
    37    15     9   ar
    38     8     1    1
    39    38    32   ar
    40    29    25   am
    41    17    18    1
    42    17    19    1
@<TRIPOS>MOLECULE
*****
 39 42 0 0 0
SMALL
GASTEIGER

@<TRIPOS>ATOM
      1 N          61.8935   89.4422   10.2050 N.pl3   1  UNL1       -0.3043
      2 C          62.1167   89.1196   11.6528 C.3     1  UNL1        0.1123
      3 C          63.0752   89.9394   12.4647 C.3     1  UNL1        0.1149
      4 N          63.8105   91.0819   11.8288 N.am    1  UNL1       -0.2747
      5 C          64.7689   91.9017   12.6407 C.2     1  UNL1        0.2442
      6 O          65.5041   93.0440   12.0048 O.2     1  UNL1       -0.2731
      7 C          63.5872   91.4044   10.3810 C.3     1  UNL1        0.1149
      8 C          62.6287   90.5845    9.5691 C.3     1  UNL1        0.1123
      9 C          60.9220   87.1287    9.5310 C.ar    1  UNL1        0.0073
     10 C          59.9635   86.3089    8.7191 C.ar    1  UNL1        0.0279
     11 C          59.0180   86.9827    7.7693 C.ar    1  UNL1        0.1400
     12 F          58.0595   86.1628    6.9574 F       1  UNL1       -0.2042
     13 C          59.0310   88.4763    7.6314 C.ar    1  UNL1        0.0309
     14 C          59.9895   89.2961    8.4433 C.ar    1  UNL1        0.0165
     15 C          60.9350   88.6223    9.3931 C.ar    1  UNL1        0.0453
     16 C          61.8674   86.4550   10.4808 C.3     1  UNL1        0.0749
     17 N          61.4725   86.2505   11.9133 N.3     1  UNL1       -0.3188
     18 H          62.2291   85.7811   12.4109 H       1  UNL1        0.1191
     19 H          60.6304   85.6765   11.9553 H       1  UNL1        0.1191
     20 C          63.2078   85.9856    9.9981 C.3     1  UNL1        0.0201
     21 C          63.7795   83.4559    9.8448 C.3     1  UNL1        0.0001
     22 C          63.3156   84.7247    9.1929 C.3     1  UNL1        0.0017
     23 C          62.9596   84.7325    7.7358 C.3     1  UNL1        0.0001
     24 C          64.9921   91.5791   14.0885 C.3     1  UNL1        0.1564
     25 N          66.3132   91.8845   14.7299 N.am    1  UNL1       -0.2727
     26 C          67.6629   91.6883   14.1054 C.3     1  UNL1        0.0943
     27 C          68.7005   92.1222   15.0979 C.3     1  UNL1        0.0311
     28 C          67.9921   92.5866   16.3359 C.3     1  UNL1        0.0870
     29 C          66.5167   92.4396   16.1085 C.2     1  UNL1        0.2260
     30 O          65.4348   92.7869   17.0877 O.2     1  UNL1       -0.2749
     31 C          63.8942   90.9513   14.8949 C.3     1  UNL1        0.0564
     32 C          63.9222   89.4792   15.1819 C.ar    1  UNL1       -0.0094
     33 C          64.6119   88.5433   14.2341 C.ar    1  UNL1       -0.0025
     34 C          64.6399   87.0713   14.5211 C.ar    1  UNL1        0.0111
     35 C          63.9782   86.5352   15.7558 C.ar    1  UNL1        0.0585
     36 CL         64.0062   85.0631   16.0428 Cl      1  UNL1       -0.0822
     37 C          63.2885   87.4711   16.7037 C.ar    1  UNL1        0.0225
     38 C          63.2605   88.9431   16.4167 C.ar    1  UNL1        0.0546
     39 CL         62.5708   89.8790   17.3646 Cl      1  UNL1       -0.0825
@<TRIPOS>BOND
     1    21    22    1
     2    22    23    1
     3    22    20    1
     4    20    16    1
     5    16    17    1
     6    16     9    1
     7     9    10   ar
     8    10    11   ar
     9    11    12    1
    10    11    13   ar
    11    13    14   ar
    12    14    15   ar
    13    15     1    1
    14     1     2    1
    15     2     3    1
    16     3     4    1
    17     4     5   am
    18     5     6    2
    19     5    24    1
    20    24    31    1
    21    31    32    1
    22    32    33   ar
    23    33    34   ar
    24    34    35   ar
    25    35    36    1
    26    35    37   ar
    27    37    38   ar
    28    38    39    1
    29    24    25    1
    30    25    26    1
    31    26    27    1
    32    27    28    1
    33    28    29    1
    34    29    30    2
    35     4     7    1
    36     7     8    1
    37    15     9   ar
    38     8     1    1
    39    38    32   ar
    40    29    25   am
    41    17    18    1
    42    17    19    1
