@<TRIPOS>MOLECULE
*****
 48 55 0 0 0
SMALL
GASTEIGER

@<TRIPOS>ATOM
      1 C          64.7608   93.9370   10.7702 C.ar    1  UNL1        0.1384
      2 C          65.4075   93.5270   12.0600 C.ar    1  UNL1        0.0369
      3 C          65.1329   92.1706   12.6387 C.ar    1  UNL1        0.0042
      4 C          64.2117   91.2244   11.9277 C.ar    1  UNL1        0.0117
      5 C          63.5649   91.6343   10.6379 C.ar    1  UNL1       -0.0176
      6 C          63.8395   92.9907   10.0590 C.ar    1  UNL1        0.0327
      7 C          62.6219   90.8505    9.7739 C.3     1  UNL1        0.0330
      8 C          61.6782   90.2468    8.7764 C.3     1  UNL1        0.0157
      9 C          62.0926   89.4632    9.9864 C.3     1  UNL1        0.0938
     10 C          62.3758   88.5170   11.1154 C.3     1  UNL1        0.1148
     11 N          63.2580   88.7244   12.3107 N.ar    1  UNL1       -0.3269
     12 C          64.0750   89.9293   12.6721 C.ar    1  UNL1        0.0555
     13 C          64.7810   89.6402   13.9636 C.ar    1  UNL1       -0.0053
     14 C          64.4003   88.2565   14.4003 C.ar    1  UNL1        0.0132
     15 C          64.7891   87.4388   15.5962 C.ar    1  UNL1        0.0013
     16 C          64.2367   86.0552   15.7705 C.ar    1  UNL1        0.0046
     17 C          63.2954   85.4893   14.7489 C.ar    1  UNL1        0.0563
     18 C          62.9065   86.3069   13.5530 C.ar    1  UNL1        0.0217
     19 C          63.4590   87.6906   13.3786 C.ar    1  UNL1        0.0597
     20 C          61.2136   88.3754    9.4440 C.2     1  UNL1        0.2268
     21 O          59.7228   88.5404    9.4550 O.2     1  UNL1       -0.2748
     22 N          61.8256   87.1226    8.8907 N.am    1  UNL1       -0.2800
     23 C          63.2921   86.8173    8.8137 C.3     1  UNL1        0.0913
     24 C          63.4512   85.4611    8.1927 C.3     1  UNL1        0.0230
     25 C          62.0829   84.9284    7.8859 C.3     1  UNL1        0.0230
     26 C          61.0783   85.9553    8.3173 C.3     1  UNL1        0.0913
     27 C          60.3104   87.1473    8.8356 C.3     1  UNL1        0.0922
     28 N          61.1894   88.2351    9.3780 N.3     1  UNL1       -0.2687
     29 C          60.5775   89.4879    9.9313 C.3     1  UNL1        0.0897
     30 C          62.6802   88.0700    9.3670 C.3     1  UNL1        0.0922
     31 C          65.7054   90.5711   14.6908 C.3     1  UNL1        0.0238
     32 C          67.1749   90.5554   14.3899 C.3     1  UNL1        0.0044
     33 C          68.0993   91.4862   15.1170 C.3     1  UNL1        0.0003
     34 C          67.5543   92.4329   16.1451 C.3     1  UNL1        0.0000
     35 C          66.0849   92.4486   16.4460 C.3     1  UNL1        0.0003
     36 C          65.1605   91.5177   15.7188 C.3     1  UNL1        0.0044
     37 C          62.7429   84.1057   14.9232 C.2     1  UNL1        0.2651
     38 O          62.3650   83.6156   16.2895 O.2     1  UNL1       -0.2685
     39 N          62.5683   83.2121   13.7311 N.am    1  UNL1       -0.1714
     40 H          62.8164   83.5338   12.8343 H       1  UNL1        0.1779
     41 S          62.0159   81.8285   13.9052 S.O2    1  UNL1        0.1154
     42 O          60.8288   82.3933   14.6275 O.2     1  UNL1       -0.1378
     43 O          63.2031   81.2636   13.1829 O.2     1  UNL1       -0.1378
     44 N          61.4635   80.4448   14.0794 N.3     1  UNL1       -0.1398
     45 C          59.9903   80.2450   14.2787 C.3     1  UNL1        0.1163
     46 C          62.3843   79.2610   14.0541 C.3     1  UNL1        0.1163
     47 C          66.1545   96.1294   10.7380 C.3     1  UNL1        0.2525
     48 O          65.0354   95.2933   10.1915 O.3     1  UNL1       -0.4714
@<TRIPOS>BOND
     1    47    48    1
     2    48     1    1
     3     1     2   ar
     4     2     3   ar
     5     3     4   ar
     6     4     5   ar
     7     5     6   ar
     8     5     7    1
     9     7     8    1
    10     8     9    1
    11     9    20    1
    12    20    21    2
    13    20    22   am
    14    22    23    1
    15    23    24    1
    16    24    25    1
    17    25    26    1
    18    26    27    1
    19    27    28    1
    20    28    29    1
    21    28    30    1
    22     9    10    1
    23    10    11    1
    24    11    12   ar
    25    12    13   ar
    26    13    31    1
    27    31    32    1
    28    32    33    1
    29    33    34    1
    30    34    35    1
    31    35    36    1
    32    13    14   ar
    33    14    15   ar
    34    15    16   ar
    35    16    17   ar
    36    17    37    1
    37    37    38    2
    38    37    39   am
    39    39    41    1
    40    41    42    2
    41    41    43    2
    42    41    44    1
    43    44    45    1
    44    44    46    1
    45    17    18   ar
    46    18    19   ar
    47     6     1   ar
    48     9     7    1
    49    26    22    1
    50    19    11   ar
    51    12     4    1
    52    36    31    1
    53    19    14   ar
    54    30    23    1
    55    39    40    1
