@<TRIPOS>MOLECULE
*****
 43 47 0 0 0
SMALL
GASTEIGER

@<TRIPOS>ATOM
      1 C          62.7969   85.5694   12.1985 C.ar    1  UNL1        0.1218
      2 C          62.1824   84.9336   10.9868 C.ar    1  UNL1        0.0208
      3 C          61.6259   85.7923    9.8900 C.ar    1  UNL1        0.0112
      4 C          61.6838   87.2868   10.0049 C.ar    1  UNL1        0.0611
      5 C          62.2983   87.9225   11.2167 C.ar    1  UNL1        0.1068
      6 N          62.8548   87.0639   12.3134 N.ar    1  UNL1       -0.2421
      7 C          63.3534   84.7107   13.2953 C.3     1  UNL1        0.3254
      8 F          64.6489   85.4639   13.2277 F       1  UNL1       -0.1949
      9 F          61.9619   84.1877   13.0955 F       1  UNL1       -0.1949
     10 O          64.4665   82.9934   15.4889 O.3     1  UNL1       -0.3755
     11 C          63.9100   83.8521   14.3921 C.3     1  UNL1        0.1932
     12 H          63.9539   83.1330   16.3004 H       1  UNL1        0.2110
     13 C          63.5053   82.6222   13.6347 C.ar    1  UNL1        0.0368
     14 C          62.4799   81.6906   14.2099 C.ar    1  UNL1        0.0028
     15 C          62.0752   80.4608   13.4525 C.ar    1  UNL1        0.0295
     16 C          62.6958   80.1625   12.1199 C.ar    1  UNL1        0.1424
     17 F          62.2911   78.9327   11.3624 F       1  UNL1       -0.2041
     18 C          63.7211   81.0941   11.5446 C.ar    1  UNL1        0.0590
     19 C          64.1259   82.3240   12.3021 C.ar    1  UNL1        0.1408
     20 F          65.1512   83.2555   11.7268 F       1  UNL1       -0.2043
     21 C          64.3147   85.0819   15.1496 C.3     1  UNL1        0.1679
     22 N          63.2968   85.8385   15.9504 N.ar    1  UNL1       -0.2078
     23 C          63.4201   87.2588   16.4169 C.ar    1  UNL1        0.2216
     24 N          62.1763   87.6057   17.1801 N.ar    1  UNL1       -0.1048
     25 N          61.2842   86.3997   17.1853 N.ar    1  UNL1       -0.0226
     26 N          61.9767   85.3076   16.4253 N.ar    1  UNL1       -0.0428
     27 C          61.1273   88.1455    8.9082 C.1     1  UNL1       -0.0582
     28 C          60.5708   89.0042    7.8114 C.1     1  UNL1       -0.0597
     29 C          60.0143   89.8630    6.7146 C.ar    1  UNL1        0.0422
     30 C          60.9423   90.5963    5.7922 C.ar    1  UNL1        0.0114
     31 C          60.3857   91.4550    4.6955 C.ar    1  UNL1        0.0375
     32 C          58.9012   91.5804    4.5213 C.ar    1  UNL1        0.1391
     33 C          57.9732   90.8470    5.4437 C.ar    1  UNL1        0.0375
     34 C          58.5297   89.9883    6.5404 C.ar    1  UNL1        0.0114
     35 O          58.3446   92.4392    3.4245 O.3     1  UNL1       -0.4706
     36 C          59.0003   92.4512    2.0755 C.3     1  UNL1        0.2320
     37 C          60.2332   93.2749    1.8481 C.ar    1  UNL1        0.0213
     38 C          60.1717   94.7681    1.9756 C.ar    1  UNL1        0.0016
     39 C          61.4046   95.5917    1.7483 C.ar    1  UNL1        0.0294
     40 C          62.6990   94.9219    1.3934 C.ar    1  UNL1        0.1401
     41 F          63.9319   95.7455    1.1661 F       1  UNL1       -0.2042
     42 C          62.7605   93.4286    1.2659 C.ar    1  UNL1        0.0294
     43 C          61.5276   92.6051    1.4932 C.ar    1  UNL1        0.0016
@<TRIPOS>BOND
     1    10    11    1
     2    11    21    1
     3    21    22    1
     4    22    23   ar
     5    23    24   ar
     6    24    25   ar
     7    25    26   ar
     8    11    13    1
     9    13    14   ar
    10    14    15   ar
    11    15    16   ar
    12    16    17    1
    13    16    18   ar
    14    18    19   ar
    15    19    20    1
    16    11     7    1
    17     7     8    1
    18     7     9    1
    19     7     1    1
    20     1     2   ar
    21     2     3   ar
    22     3     4   ar
    23     4    27    1
    24    27    28    3
    25    28    29    1
    26    29    30   ar
    27    30    31   ar
    28    31    32   ar
    29    32    35    1
    30    35    36    1
    31    36    37    1
    32    37    38   ar
    33    38    39   ar
    34    39    40   ar
    35    40    41    1
    36    40    42   ar
    37    42    43   ar
    38    32    33   ar
    39    33    34   ar
    40     4     5   ar
    41     5     6   ar
    42    26    22   ar
    43    19    13   ar
    44     6     1   ar
    45    34    29   ar
    46    43    37   ar
    47    10    12    1
@<TRIPOS>MOLECULE
*****
 43 47 0 0 0
SMALL
GASTEIGER

@<TRIPOS>ATOM
      1 C          62.8248   85.6555   12.1508 C.ar    1  UNL1        0.1218
      2 C          62.2356   85.0068   10.9334 C.ar    1  UNL1        0.0208
      3 C          61.6897   85.8537    9.8221 C.ar    1  UNL1        0.0112
      4 C          61.7332   87.3493    9.9282 C.ar    1  UNL1        0.0611
      5 C          62.3224   87.9980   11.1457 C.ar    1  UNL1        0.1068
      6 N          62.8682   87.1511   12.2569 N.ar    1  UNL1       -0.2421
      7 C          63.3706   84.8086   13.2621 C.3     1  UNL1        0.3254
      8 F          64.6555   85.5815   13.2200 F       1  UNL1       -0.1949
      9 F          61.9919   84.2636   13.0340 F       1  UNL1       -0.1949
     10 O          64.4623   83.1149   15.4845 O.3     1  UNL1       -0.3755
     11 C          63.9164   83.9617   14.3733 C.3     1  UNL1        0.1932
     12 H          63.9467   83.2690   16.2916 H       1  UNL1        0.2110
     13 C          63.5074   82.7241   13.6311 C.ar    1  UNL1        0.0368
     14 C          62.4706   81.8091   14.2124 C.ar    1  UNL1        0.0028
     15 C          62.0616   80.5715   13.4702 C.ar    1  UNL1        0.0295
     16 C          62.6893   80.2488   12.1466 C.ar    1  UNL1        0.1424
     17 F          62.2802   79.0112   11.4044 F       1  UNL1       -0.2041
     18 C          63.7260   81.1637   11.5653 C.ar    1  UNL1        0.0590
     19 C          64.1351   82.4014   12.3075 C.ar    1  UNL1        0.1408
     20 F          65.1719   83.3163   11.7262 F       1  UNL1       -0.2043
     21 C          64.3255   85.1994   15.1156 C.3     1  UNL1        0.1679
     22 N          63.3334   85.9164   15.9825 N.ar    1  UNL1       -0.2078
     23 C          63.4213   87.3468   16.4256 C.ar    1  UNL1        0.2216
     24 N          62.2214   87.6434   17.2754 N.ar    1  UNL1       -0.1048
     25 N          61.3919   86.3962   17.3575 N.ar    1  UNL1       -0.0226
     26 N          62.0792   85.3290   16.5585 N.ar    1  UNL1       -0.0428
     27 C          61.1874   88.1962    8.8170 C.1     1  UNL1       -0.0582
     28 C          60.6416   89.0431    7.7058 C.1     1  UNL1       -0.0597
     29 C          60.0959   89.8900    6.5945 C.ar    1  UNL1        0.0422
     30 C          61.0325   90.5726    5.6424 C.ar    1  UNL1        0.0114
     31 C          60.4868   91.4195    4.5312 C.ar    1  UNL1        0.0375
     32 C          59.0043   91.5838    4.3721 C.ar    1  UNL1        0.1391
     33 C          58.0676   90.9012    5.3243 C.ar    1  UNL1        0.0375
     34 C          58.6134   90.0543    6.4355 C.ar    1  UNL1        0.0114
     35 O          58.4585   92.4307    3.2608 O.3     1  UNL1       -0.4706
     36 C          59.3884   93.2520    2.4177 C.3     1  UNL1        0.2320
     37 C          59.3266   93.1563    0.9220 C.ar    1  UNL1        0.0213
     38 C          58.0088   92.9436    0.2378 C.ar    1  UNL1        0.0016
     39 C          57.9471   92.8480   -1.2578 C.ar    1  UNL1        0.0294
     40 C          59.2032   92.9649   -2.0693 C.ar    1  UNL1        0.1401
     41 F          59.1415   92.8692   -3.5650 F       1  UNL1       -0.2042
     42 C          60.5210   93.1776   -1.3851 C.ar    1  UNL1        0.0294
     43 C          60.5827   93.2733    0.1105 C.ar    1  UNL1        0.0016
@<TRIPOS>BOND
     1    10    11    1
     2    11    21    1
     3    21    22    1
     4    22    23   ar
     5    23    24   ar
     6    24    25   ar
     7    25    26   ar
     8    11    13    1
     9    13    14   ar
    10    14    15   ar
    11    15    16   ar
    12    16    17    1
    13    16    18   ar
    14    18    19   ar
    15    19    20    1
    16    11     7    1
    17     7     8    1
    18     7     9    1
    19     7     1    1
    20     1     2   ar
    21     2     3   ar
    22     3     4   ar
    23     4    27    1
    24    27    28    3
    25    28    29    1
    26    29    30   ar
    27    30    31   ar
    28    31    32   ar
    29    32    35    1
    30    35    36    1
    31    36    37    1
    32    37    38   ar
    33    38    39   ar
    34    39    40   ar
    35    40    41    1
    36    40    42   ar
    37    42    43   ar
    38    32    33   ar
    39    33    34   ar
    40     4     5   ar
    41     5     6   ar
    42    26    22   ar
    43    19    13   ar
    44     6     1   ar
    45    34    29   ar
    46    43    37   ar
    47    10    12    1
@<TRIPOS>MOLECULE
*****
 43 47 0 0 0
SMALL
GASTEIGER

@<TRIPOS>ATOM
      1 C          60.1060   92.9841    2.2604 C.ar    1  UNL1        0.1218
      2 C          61.4307   92.3781    2.6179 C.ar    1  UNL1        0.0208
      3 C          61.5568   91.5190    3.8411 C.ar    1  UNL1        0.0112
      4 C          60.3582   91.2660    4.7067 C.ar    1  UNL1        0.0611
      5 C          59.0334   91.8721    4.3491 C.ar    1  UNL1        0.1068
      6 N          58.9074   92.7311    3.1260 N.ar    1  UNL1       -0.2421
      7 C          59.9799   93.8433    1.0372 C.3     1  UNL1        0.3254
      8 F          59.7575   95.0463    1.9051 F       1  UNL1       -0.1949
      9 F          60.2263   92.4681    0.4912 F       1  UNL1       -0.1949
     10 O          59.7278   95.5615   -1.4090 O.3     1  UNL1       -0.3755
     11 C          59.8539   94.7024   -0.1859 C.3     1  UNL1        0.1932
     12 H          59.2212   96.3598   -1.1925 H       1  UNL1        0.2110
     13 C          61.3381   94.9192   -0.1866 C.ar    1  UNL1        0.0368
     14 C          61.9460   95.9491    0.7190 C.ar    1  UNL1        0.0028
     15 C          63.4302   96.1659    0.7183 C.ar    1  UNL1        0.0295
     16 C          64.3066   95.3530   -0.1879 C.ar    1  UNL1        0.1424
     17 F          65.7908   95.5698   -0.1886 F       1  UNL1       -0.2041
     18 C          63.6987   94.3232   -1.0934 C.ar    1  UNL1        0.0590
     19 C          62.2144   94.1063   -1.0927 C.ar    1  UNL1        0.1408
     20 F          61.6065   93.0764   -1.9982 F       1  UNL1       -0.2043
     21 C          58.3696   94.4855   -0.1852 C.3     1  UNL1        0.1679
     22 N          57.7265   93.6959   -1.2865 N.ar    1  UNL1       -0.2078
     23 C          56.2568   93.6245   -1.5780 C.ar    1  UNL1        0.2216
     24 N          56.0621   92.7235   -2.7613 N.ar    1  UNL1       -0.1048
     25 N          57.4116   92.2381   -3.2012 N.ar    1  UNL1       -0.0226
     26 N          58.4402   92.8391   -2.2897 N.ar    1  UNL1       -0.0428
     27 C          60.4842   90.4069    5.9299 C.1     1  UNL1       -0.0582
     28 C          60.6102   89.5479    7.1530 C.1     1  UNL1       -0.0597
     29 C          60.7362   88.6888    8.3762 C.ar    1  UNL1        0.0422
     30 C          61.1001   89.3077    9.6932 C.ar    1  UNL1        0.0114
     31 C          61.2261   88.4486   10.9163 C.ar    1  UNL1        0.0375
     32 C          60.9882   86.9706   10.8224 C.ar    1  UNL1        0.1391
     33 C          60.6243   86.3516    9.5054 C.ar    1  UNL1        0.0375
     34 C          60.4983   87.2107    8.2823 C.ar    1  UNL1        0.0114
     35 O          61.1142   86.1115   12.0456 O.3     1  UNL1       -0.4706
     36 C          62.4279   85.4687   12.3786 C.3     1  UNL1        0.2320
     37 C          62.4861   84.0051   12.7021 C.ar    1  UNL1        0.0213
     38 C          62.2540   83.5380   14.1084 C.ar    1  UNL1        0.0016
     39 C          62.3122   82.0745   14.4319 C.ar    1  UNL1        0.0294
     40 C          62.6025   81.0780   13.3489 C.ar    1  UNL1        0.1401
     41 F          62.6607   79.6144   13.6724 F       1  UNL1       -0.2042
     42 C          62.8346   81.5451   11.9425 C.ar    1  UNL1        0.0294
     43 C          62.7764   83.0086   11.6191 C.ar    1  UNL1        0.0016
@<TRIPOS>BOND
     1    10    11    1
     2    11    21    1
     3    21    22    1
     4    22    23   ar
     5    23    24   ar
     6    24    25   ar
     7    25    26   ar
     8    11    13    1
     9    13    14   ar
    10    14    15   ar
    11    15    16   ar
    12    16    17    1
    13    16    18   ar
    14    18    19   ar
    15    19    20    1
    16    11     7    1
    17     7     8    1
    18     7     9    1
    19     7     1    1
    20     1     2   ar
    21     2     3   ar
    22     3     4   ar
    23     4    27    1
    24    27    28    3
    25    28    29    1
    26    29    30   ar
    27    30    31   ar
    28    31    32   ar
    29    32    35    1
    30    35    36    1
    31    36    37    1
    32    37    38   ar
    33    38    39   ar
    34    39    40   ar
    35    40    41    1
    36    40    42   ar
    37    42    43   ar
    38    32    33   ar
    39    33    34   ar
    40     4     5   ar
    41     5     6   ar
    42    26    22   ar
    43    19    13   ar
    44     6     1   ar
    45    34    29   ar
    46    43    37   ar
    47    10    12    1
@<TRIPOS>MOLECULE
*****
 43 47 0 0 0
SMALL
GASTEIGER

@<TRIPOS>ATOM
      1 C          60.2752   93.4155    1.5389 C.ar    1  UNL1        0.1218
      2 C          61.5579   92.8202    2.0392 C.ar    1  UNL1        0.0208
      3 C          61.5629   91.9923    3.2901 C.ar    1  UNL1        0.0112
      4 C          60.2851   91.7597    4.0406 C.ar    1  UNL1        0.0611
      5 C          59.0024   92.3551    3.5402 C.ar    1  UNL1        0.1068
      6 N          58.9975   93.1829    2.2894 N.ar    1  UNL1       -0.2421
      7 C          60.2702   94.2434    0.2881 C.3     1  UNL1        0.3254
      8 F          60.9968   93.1504   -0.4383 F       1  UNL1       -0.1949
      9 F          59.5665   95.1035    1.2955 F       1  UNL1       -0.1949
     10 O          60.2603   95.8991   -2.2136 O.3     1  UNL1       -0.3755
     11 C          60.2653   95.0713   -0.9628 C.3     1  UNL1        0.1932
     12 H          61.0959   95.7711   -2.6893 H       1  UNL1        0.2110
     13 C          59.1371   94.2449   -1.5052 C.ar    1  UNL1        0.0368
     14 C          57.7832   94.3102   -0.8626 C.ar    1  UNL1        0.0028
     15 C          56.6550   93.4839   -1.4051 C.ar    1  UNL1        0.0295
     16 C          56.8806   92.5923   -2.5900 C.ar    1  UNL1        0.1424
     17 F          55.7524   91.7659   -3.1325 F       1  UNL1       -0.2041
     18 C          58.2344   92.5270   -3.2326 C.ar    1  UNL1        0.0590
     19 C          59.3627   93.3533   -2.6902 C.ar    1  UNL1        0.1408
     20 F          60.7165   93.2881   -3.3327 F       1  UNL1       -0.2043
     21 C          61.3936   95.8977   -0.4203 C.3     1  UNL1        0.1679
     22 N          62.7904   95.6814   -0.9223 N.ar    1  UNL1       -0.2078
     23 C          64.0449   95.7717   -0.1049 C.ar    1  UNL1        0.2216
     24 N          65.2079   95.4830   -1.0072 N.ar    1  UNL1       -0.1048
     25 N          64.6721   95.2143   -2.3823 N.ar    1  UNL1       -0.0226
     26 N          63.1780   95.3369   -2.3298 N.ar    1  UNL1       -0.0428
     27 C          60.2900   90.9319    5.2914 C.1     1  UNL1       -0.0582
     28 C          60.2949   90.1040    6.5422 C.1     1  UNL1       -0.0597
     29 C          60.2999   89.2760    7.7931 C.ar    1  UNL1        0.0422
     30 C          59.6942   87.9038    7.7866 C.ar    1  UNL1        0.0114
     31 C          59.6992   87.0759    9.0374 C.ar    1  UNL1        0.0375
     32 C          60.3098   87.6203   10.2947 C.ar    1  UNL1        0.1391
     33 C          60.9155   88.9925   10.3012 C.ar    1  UNL1        0.0375
     34 C          60.9106   89.8204    9.0504 C.ar    1  UNL1        0.0114
     35 O          60.3148   86.7923   11.5455 O.3     1  UNL1       -0.4706
     36 C          61.6162   86.3671   12.1583 C.3     1  UNL1        0.2320
     37 C          62.3698   85.2032   11.5861 C.ar    1  UNL1        0.0213
     38 C          62.7536   84.0518   12.4674 C.ar    1  UNL1        0.0016
     39 C          63.5072   82.8879   11.8952 C.ar    1  UNL1        0.0294
     40 C          63.8770   82.8755   10.4415 C.ar    1  UNL1        0.1401
     41 F          64.6306   81.7116    9.8692 F       1  UNL1       -0.2042
     42 C          63.4931   84.0269    9.5601 C.ar    1  UNL1        0.0294
     43 C          62.7395   85.1907   10.1324 C.ar    1  UNL1        0.0016
@<TRIPOS>BOND
     1    10    11    1
     2    11    21    1
     3    21    22    1
     4    22    23   ar
     5    23    24   ar
     6    24    25   ar
     7    25    26   ar
     8    11    13    1
     9    13    14   ar
    10    14    15   ar
    11    15    16   ar
    12    16    17    1
    13    16    18   ar
    14    18    19   ar
    15    19    20    1
    16    11     7    1
    17     7     8    1
    18     7     9    1
    19     7     1    1
    20     1     2   ar
    21     2     3   ar
    22     3     4   ar
    23     4    27    1
    24    27    28    3
    25    28    29    1
    26    29    30   ar
    27    30    31   ar
    28    31    32   ar
    29    32    35    1
    30    35    36    1
    31    36    37    1
    32    37    38   ar
    33    38    39   ar
    34    39    40   ar
    35    40    41    1
    36    40    42   ar
    37    42    43   ar
    38    32    33   ar
    39    33    34   ar
    40     4     5   ar
    41     5     6   ar
    42    26    22   ar
    43    19    13   ar
    44     6     1   ar
    45    34    29   ar
    46    43    37   ar
    47    10    12    1
@<TRIPOS>MOLECULE
*****
 43 47 0 0 0
SMALL
GASTEIGER

@<TRIPOS>ATOM
      1 C          62.8768   85.7533   11.9978 C.ar    1  UNL1        0.1218
      2 C          62.8513   87.2470   12.1327 C.ar    1  UNL1        0.0208
      3 C          62.3063   88.0915   11.0192 C.ar    1  UNL1        0.0112
      4 C          61.7868   87.4423    9.7708 C.ar    1  UNL1        0.0611
      5 C          61.8124   85.9486    9.6358 C.ar    1  UNL1        0.1068
      6 N          62.3573   85.1041   10.7493 N.ar    1  UNL1       -0.2421
      7 C          63.4217   84.9088   13.1113 C.3     1  UNL1        0.3254
      8 F          64.7099   85.6760   13.0627 F       1  UNL1       -0.1949
      9 F          62.0401   84.3689   12.8890 F       1  UNL1       -0.1949
     10 O          64.5117   83.2199   15.3382 O.3     1  UNL1       -0.3755
     11 C          63.9667   84.0644   14.2248 C.3     1  UNL1        0.1932
     12 H          63.9881   83.3667   16.1414 H       1  UNL1        0.2110
     13 C          63.5760   82.8248   13.4759 C.ar    1  UNL1        0.0368
     14 C          64.2779   82.4671   12.1994 C.ar    1  UNL1        0.0028
     15 C          63.8871   81.2275   11.4506 C.ar    1  UNL1        0.0295
     16 C          62.7945   80.3457   11.9782 C.ar    1  UNL1        0.1424
     17 F          62.4037   79.1061   11.2294 F       1  UNL1       -0.2041
     18 C          62.0925   80.7034   13.2546 C.ar    1  UNL1        0.0590
     19 C          62.4833   81.9430   14.0035 C.ar    1  UNL1        0.1408
     20 F          61.7814   82.3007   15.2800 F       1  UNL1       -0.2043
     21 C          64.3575   85.3040   14.9736 C.3     1  UNL1        0.1679
     22 N          63.3721   85.9701   15.8875 N.ar    1  UNL1       -0.2078
     23 C          62.1902   85.3145   16.5382 C.ar    1  UNL1        0.2216
     24 N          61.4832   86.3480   17.3640 N.ar    1  UNL1       -0.1048
     25 N          62.2282   87.6424   17.2237 N.ar    1  UNL1       -0.0226
     26 N          63.3956   87.4088   16.3112 N.ar    1  UNL1       -0.0428
     27 C          61.2419   88.2867    8.6573 C.1     1  UNL1       -0.0582
     28 C          60.6969   89.1312    7.5438 C.1     1  UNL1       -0.0597
     29 C          60.1520   89.9757    6.4302 C.ar    1  UNL1        0.0422
     30 C          61.0896   90.6633    5.4826 C.ar    1  UNL1        0.0114
     31 C          60.5446   91.5078    4.3691 C.ar    1  UNL1        0.0375
     32 C          59.0621   91.6645    4.2032 C.ar    1  UNL1        0.1391
     33 C          58.1245   90.9768    5.1508 C.ar    1  UNL1        0.0375
     34 C          58.6695   90.1324    6.2643 C.ar    1  UNL1        0.0114
     35 O          58.5171   92.5090    3.0896 O.3     1  UNL1       -0.4706
     36 C          59.3851   92.8534    1.9158 C.3     1  UNL1        0.2320
     37 C          58.7875   93.5157    0.7098 C.ar    1  UNL1        0.0213
     38 C          59.0937   94.9542    0.4152 C.ar    1  UNL1        0.0016
     39 C          58.4961   95.6165   -0.7907 C.ar    1  UNL1        0.0294
     40 C          57.5923   94.8402   -1.7020 C.ar    1  UNL1        0.1401
     41 F          56.9947   95.5025   -2.9080 F       1  UNL1       -0.2042
     42 C          57.2861   93.4016   -1.4074 C.ar    1  UNL1        0.0294
     43 C          57.8837   92.7394   -0.2015 C.ar    1  UNL1        0.0016
@<TRIPOS>BOND
     1    10    11    1
     2    11    21    1
     3    21    22    1
     4    22    23   ar
     5    23    24   ar
     6    24    25   ar
     7    25    26   ar
     8    11    13    1
     9    13    14   ar
    10    14    15   ar
    11    15    16   ar
    12    16    17    1
    13    16    18   ar
    14    18    19   ar
    15    19    20    1
    16    11     7    1
    17     7     8    1
    18     7     9    1
    19     7     1    1
    20     1     2   ar
    21     2     3   ar
    22     3     4   ar
    23     4    27    1
    24    27    28    3
    25    28    29    1
    26    29    30   ar
    27    30    31   ar
    28    31    32   ar
    29    32    35    1
    30    35    36    1
    31    36    37    1
    32    37    38   ar
    33    38    39   ar
    34    39    40   ar
    35    40    41    1
    36    40    42   ar
    37    42    43   ar
    38    32    33   ar
    39    33    34   ar
    40     4     5   ar
    41     5     6   ar
    42    26    22   ar
    43    19    13   ar
    44     6     1   ar
    45    34    29   ar
    46    43    37   ar
    47    10    12    1
@<TRIPOS>MOLECULE
*****
 43 47 0 0 0
SMALL
GASTEIGER

@<TRIPOS>ATOM
      1 C          60.0017   92.9994    2.2893 C.ar    1  UNL1        0.1218
      2 C          61.3319   92.3978    2.6335 C.ar    1  UNL1        0.0208
      3 C          61.4624   91.4997    3.8279 C.ar    1  UNL1        0.0112
      4 C          60.2626   91.2032    4.6779 C.ar    1  UNL1        0.0611
      5 C          58.9323   91.8048    4.3336 C.ar    1  UNL1        0.1068
      6 N          58.8019   92.7029    3.1393 N.ar    1  UNL1       -0.2421
      7 C          59.8712   93.8976    1.0949 C.3     1  UNL1        0.3254
      8 F          59.6759   92.6987    0.2147 F       1  UNL1       -0.1949
      9 F          60.0923   94.8434    2.2379 F       1  UNL1       -0.1949
     10 O          59.6102   95.6937   -1.2937 O.3     1  UNL1       -0.3755
     11 C          59.7407   94.7956   -0.0994 C.3     1  UNL1        0.1932
     12 H          59.1163   96.4910   -1.0463 H       1  UNL1        0.2110
     13 C          61.2274   94.9946   -0.1122 C.ar    1  UNL1        0.0368
     14 C          61.8411   96.1136    0.6761 C.ar    1  UNL1        0.0028
     15 C          63.3278   96.3125    0.6633 C.ar    1  UNL1        0.0295
     16 C          64.2007   95.3927   -0.1377 C.ar    1  UNL1        0.1424
     17 F          65.6874   95.5916   -0.1505 F       1  UNL1       -0.2041
     18 C          63.5871   94.2738   -0.9260 C.ar    1  UNL1        0.0590
     19 C          62.1003   94.0747   -0.9132 C.ar    1  UNL1        0.1408
     20 F          61.4866   92.9558   -1.7015 F       1  UNL1       -0.2043
     21 C          58.2540   94.5967   -0.0866 C.3     1  UNL1        0.1679
     22 N          57.5493   94.1283   -1.3252 N.ar    1  UNL1       -0.2078
     23 C          56.1075   94.3673   -1.6630 C.ar    1  UNL1        0.2216
     24 N          55.8298   93.7254   -2.9900 N.ar    1  UNL1       -0.1048
     25 N          57.1000   93.0897   -3.4723 N.ar    1  UNL1       -0.0226
     26 N          58.1627   93.3388   -2.4433 N.ar    1  UNL1       -0.0428
     27 C          60.3930   90.3051    5.8722 C.1     1  UNL1       -0.0582
     28 C          60.5235   89.4070    7.0665 C.1     1  UNL1       -0.0597
     29 C          60.6539   88.5089    8.2608 C.ar    1  UNL1        0.0422
     30 C          61.2119   87.1257    8.1017 C.ar    1  UNL1        0.0114
     31 C          61.3423   86.2276    9.2961 C.ar    1  UNL1        0.0375
     32 C          60.9146   86.7127   10.6495 C.ar    1  UNL1        0.1391
     33 C          60.3565   88.0959   10.8086 C.ar    1  UNL1        0.0375
     34 C          60.2262   88.9940    9.6143 C.ar    1  UNL1        0.0114
     35 O          61.0450   85.8146   11.8438 O.3     1  UNL1       -0.4706
     36 C          62.3884   85.5947   12.4738 C.3     1  UNL1        0.2320
     37 C          63.1211   86.7450   13.0985 C.ar    1  UNL1        0.0213
     38 C          63.1035   88.0923   12.4394 C.ar    1  UNL1        0.0016
     39 C          63.8362   89.2424   13.0640 C.ar    1  UNL1        0.0294
     40 C          64.5866   89.0452   14.3478 C.ar    1  UNL1        0.1401
     41 F          65.3194   90.1955   14.9724 F       1  UNL1       -0.2042
     42 C          64.6043   87.6980   15.0069 C.ar    1  UNL1        0.0294
     43 C          63.8715   86.5478   14.3822 C.ar    1  UNL1        0.0016
@<TRIPOS>BOND
     1    10    11    1
     2    11    21    1
     3    21    22    1
     4    22    23   ar
     5    23    24   ar
     6    24    25   ar
     7    25    26   ar
     8    11    13    1
     9    13    14   ar
    10    14    15   ar
    11    15    16   ar
    12    16    17    1
    13    16    18   ar
    14    18    19   ar
    15    19    20    1
    16    11     7    1
    17     7     8    1
    18     7     9    1
    19     7     1    1
    20     1     2   ar
    21     2     3   ar
    22     3     4   ar
    23     4    27    1
    24    27    28    3
    25    28    29    1
    26    29    30   ar
    27    30    31   ar
    28    31    32   ar
    29    32    35    1
    30    35    36    1
    31    36    37    1
    32    37    38   ar
    33    38    39   ar
    34    39    40   ar
    35    40    41    1
    36    40    42   ar
    37    42    43   ar
    38    32    33   ar
    39    33    34   ar
    40     4     5   ar
    41     5     6   ar
    42    26    22   ar
    43    19    13   ar
    44     6     1   ar
    45    34    29   ar
    46    43    37   ar
    47    10    12    1
@<TRIPOS>MOLECULE
*****
 43 47 0 0 0
SMALL
GASTEIGER

@<TRIPOS>ATOM
      1 C          60.0879   92.9794    2.1884 C.ar    1  UNL1        0.1218
      2 C          61.4090   92.3651    2.5452 C.ar    1  UNL1        0.0208
      3 C          61.5188   91.4633    3.7389 C.ar    1  UNL1        0.0112
      4 C          60.3076   91.1759    4.5757 C.ar    1  UNL1        0.0611
      5 C          58.9865   91.7902    4.2188 C.ar    1  UNL1        0.1068
      6 N          58.8767   92.6920    3.0252 N.ar    1  UNL1       -0.2421
      7 C          59.9780   93.8812    0.9947 C.3     1  UNL1        0.3254
      8 F          60.2456   92.7154    0.0894 F       1  UNL1       -0.1949
      9 F          59.7451   94.7940    2.1619 F       1  UNL1       -0.1949
     10 O          59.7584   95.6846   -1.3926 O.3     1  UNL1       -0.3755
     11 C          59.8682   94.7829   -0.1989 C.3     1  UNL1        0.1932
     12 H          59.2804   96.4916   -1.1453 H       1  UNL1        0.2110
     13 C          61.3586   94.9513   -0.2089 C.ar    1  UNL1        0.0368
     14 C          62.2050   94.0889   -1.0977 C.ar    1  UNL1        0.0028
     15 C          63.6955   94.2574   -1.1076 C.ar    1  UNL1        0.0295
     16 C          64.3396   95.2882   -0.2287 C.ar    1  UNL1        0.1424
     17 F          65.8301   95.4566   -0.2386 F       1  UNL1       -0.2041
     18 C          63.4933   96.1506    0.6601 C.ar    1  UNL1        0.0590
     19 C          62.0028   95.9822    0.6700 C.ar    1  UNL1        0.1408
     20 F          61.1565   96.8445    1.5588 F       1  UNL1       -0.2043
     21 C          58.3777   94.6145   -0.1891 C.3     1  UNL1        0.1679
     22 N          57.7120   93.7647   -1.2306 N.ar    1  UNL1       -0.2078
     23 C          58.4003   93.0404   -2.3493 C.ar    1  UNL1        0.2216
     24 N          57.3548   92.3181   -3.1464 N.ar    1  UNL1       -0.1048
     25 N          56.0204   92.5962   -2.5203 N.ar    1  UNL1       -0.0226
     26 N          56.2411   93.4902   -1.3363 N.ar    1  UNL1       -0.0428
     27 C          60.4174   90.2742    5.7693 C.1     1  UNL1       -0.0582
     28 C          60.5272   89.3724    6.9629 C.1     1  UNL1       -0.0597
     29 C          60.6370   88.4707    8.1566 C.ar    1  UNL1        0.0422
     30 C          60.7770   86.9893    7.9672 C.ar    1  UNL1        0.0114
     31 C          60.8868   86.0877    9.1609 C.ar    1  UNL1        0.0375
     32 C          60.8566   86.6674   10.5440 C.ar    1  UNL1        0.1391
     33 C          60.7166   88.1488   10.7335 C.ar    1  UNL1        0.0375
     34 C          60.6068   89.0504    9.5398 C.ar    1  UNL1        0.0114
     35 O          60.9665   85.7657   11.7377 O.3     1  UNL1       -0.4706
     36 C          62.2747   85.1079   12.0630 C.3     1  UNL1        0.2320
     37 C          62.8355   85.1994   13.4512 C.ar    1  UNL1        0.0213
     38 C          63.7759   86.3121   13.8084 C.ar    1  UNL1        0.0016
     39 C          64.3367   86.4035   15.1966 C.ar    1  UNL1        0.0294
     40 C          63.9571   85.3823   16.2276 C.ar    1  UNL1        0.1401
     41 F          64.5179   85.4737   17.6159 F       1  UNL1       -0.2042
     42 C          63.0167   84.2696   15.8704 C.ar    1  UNL1        0.0294
     43 C          62.4559   84.1782   14.4822 C.ar    1  UNL1        0.0016
@<TRIPOS>BOND
     1    10    11    1
     2    11    21    1
     3    21    22    1
     4    22    23   ar
     5    23    24   ar
     6    24    25   ar
     7    25    26   ar
     8    11    13    1
     9    13    14   ar
    10    14    15   ar
    11    15    16   ar
    12    16    17    1
    13    16    18   ar
    14    18    19   ar
    15    19    20    1
    16    11     7    1
    17     7     8    1
    18     7     9    1
    19     7     1    1
    20     1     2   ar
    21     2     3   ar
    22     3     4   ar
    23     4    27    1
    24    27    28    3
    25    28    29    1
    26    29    30   ar
    27    30    31   ar
    28    31    32   ar
    29    32    35    1
    30    35    36    1
    31    36    37    1
    32    37    38   ar
    33    38    39   ar
    34    39    40   ar
    35    40    41    1
    36    40    42   ar
    37    42    43   ar
    38    32    33   ar
    39    33    34   ar
    40     4     5   ar
    41     5     6   ar
    42    26    22   ar
    43    19    13   ar
    44     6     1   ar
    45    34    29   ar
    46    43    37   ar
    47    10    12    1
@<TRIPOS>MOLECULE
*****
 43 47 0 0 0
SMALL
GASTEIGER

@<TRIPOS>ATOM
      1 C          63.8322   95.5135   -0.6064 C.ar    1  UNL1        0.1218
      2 C          63.5997   94.3489    0.3099 C.ar    1  UNL1        0.0208
      3 C          64.0015   94.4376    1.7524 C.ar    1  UNL1        0.0112
      4 C          64.6357   95.6910    2.2786 C.ar    1  UNL1        0.0611
      5 C          64.8682   96.8556    1.3623 C.ar    1  UNL1        0.1068
      6 N          64.4664   96.7669   -0.0802 N.ar    1  UNL1       -0.2421
      7 C          63.4305   95.4248   -2.0489 C.3     1  UNL1        0.3254
      8 F          62.5938   96.6599   -1.8919 F       1  UNL1       -0.1949
      9 F          64.3395   94.2480   -1.8522 F       1  UNL1       -0.1949
     10 O          62.6271   95.2475   -4.9338 O.3     1  UNL1       -0.3755
     11 C          63.0288   95.3362   -3.4914 C.3     1  UNL1        0.1932
     12 H          63.0059   94.4454   -5.3262 H       1  UNL1        0.2110
     13 C          61.5942   95.1801   -3.0822 C.ar    1  UNL1        0.0368
     14 C          60.6384   96.3244   -3.2474 C.ar    1  UNL1        0.0028
     15 C          59.2037   96.1683   -2.8383 C.ar    1  UNL1        0.0295
     16 C          58.7248   94.8680   -2.2639 C.ar    1  UNL1        0.1424
     17 F          57.2902   94.7119   -1.8548 F       1  UNL1       -0.2041
     18 C          59.6805   93.7238   -2.0987 C.ar    1  UNL1        0.0590
     19 C          61.1153   93.8798   -2.5079 C.ar    1  UNL1        0.1408
     20 F          62.0710   92.7356   -2.3427 F       1  UNL1       -0.2043
     21 C          64.4635   95.4923   -3.9006 C.3     1  UNL1        0.1679
     22 N          65.0812   94.5155   -4.8568 N.ar    1  UNL1       -0.2078
     23 C          65.8680   94.8623   -6.0859 C.ar    1  UNL1        0.2216
     24 N          66.2936   93.5816   -6.7405 N.ar    1  UNL1       -0.1048
     25 N          65.7698   92.4432   -5.9160 N.ar    1  UNL1       -0.0226
     26 N          65.0205   93.0205   -4.7518 N.ar    1  UNL1       -0.0428
     27 C          65.0374   95.7797    3.7211 C.1     1  UNL1       -0.0582
     28 C          65.4391   95.8685    5.1635 C.1     1  UNL1       -0.0597
     29 C          65.8408   95.9572    6.6060 C.ar    1  UNL1        0.0422
     30 C          65.0194   96.7671    7.5649 C.ar    1  UNL1        0.0114
     31 C          65.4212   96.8558    9.0073 C.ar    1  UNL1        0.0375
     32 C          66.6444   96.1348    9.4909 C.ar    1  UNL1        0.1391
     33 C          67.4658   95.3249    8.5321 C.ar    1  UNL1        0.0375
     34 C          67.0640   95.2362    7.0896 C.ar    1  UNL1        0.0114
     35 O          67.0461   96.2235   10.9334 O.3     1  UNL1       -0.4706
     36 C          66.1454   95.6713   11.9982 C.3     1  UNL1        0.2320
     37 C          66.5131   94.4016   12.7072 C.ar    1  UNL1        0.0213
     38 C          66.7608   94.4133   14.1865 C.ar    1  UNL1        0.0016
     39 C          67.1284   93.1436   14.8955 C.ar    1  UNL1        0.0294
     40 C          67.2483   91.8622   14.1251 C.ar    1  UNL1        0.1401
     41 F          67.6159   90.5924   14.8342 F       1  UNL1       -0.2042
     42 C          67.0006   91.8504   12.6458 C.ar    1  UNL1        0.0294
     43 C          66.6330   93.1201   11.9368 C.ar    1  UNL1        0.0016
@<TRIPOS>BOND
     1    10    11    1
     2    11    21    1
     3    21    22    1
     4    22    23   ar
     5    23    24   ar
     6    24    25   ar
     7    25    26   ar
     8    11    13    1
     9    13    14   ar
    10    14    15   ar
    11    15    16   ar
    12    16    17    1
    13    16    18   ar
    14    18    19   ar
    15    19    20    1
    16    11     7    1
    17     7     8    1
    18     7     9    1
    19     7     1    1
    20     1     2   ar
    21     2     3   ar
    22     3     4   ar
    23     4    27    1
    24    27    28    3
    25    28    29    1
    26    29    30   ar
    27    30    31   ar
    28    31    32   ar
    29    32    35    1
    30    35    36    1
    31    36    37    1
    32    37    38   ar
    33    38    39   ar
    34    39    40   ar
    35    40    41    1
    36    40    42   ar
    37    42    43   ar
    38    32    33   ar
    39    33    34   ar
    40     4     5   ar
    41     5     6   ar
    42    26    22   ar
    43    19    13   ar
    44     6     1   ar
    45    34    29   ar
    46    43    37   ar
    47    10    12    1
