@<TRIPOS>MOLECULE
*****
 36 38 0 0 0
SMALL
GASTEIGER

@<TRIPOS>ATOM
      1 C          62.3405   86.4887   10.7257 C.3     1  UNL1        0.1812
      2 O          63.1286   86.4241   12.0003 O.3     1  UNL1       -0.3784
      3 H          63.6806   85.6265   11.9990 H       1  UNL1        0.2106
      4 C          61.5524   86.5534    9.4511 C.3     1  UNL1        0.4197
      5 F          60.7643   86.6180    8.1764 F       1  UNL1       -0.1676
      6 F          60.3221   86.9136   10.2300 F       1  UNL1       -0.1676
      7 F          62.7826   86.1931    8.6722 F       1  UNL1       -0.1676
      8 C          62.9672   85.2033   10.2729 C.3     1  UNL1        0.0398
      9 C          61.6964   84.4554   11.7979 C.3     1  UNL1        0.0045
     10 C          62.9976   84.0189   11.1928 C.3     1  UNL1        0.0216
     11 C          64.2989   83.5823   10.5878 C.3     1  UNL1        0.0045
     12 C          63.0281   82.8345   12.1128 C.ar    1  UNL1       -0.0184
     13 C          62.5268   81.5028   11.6378 C.ar    1  UNL1       -0.0041
     14 C          62.5572   80.3184   12.5577 C.ar    1  UNL1       -0.0003
     15 C          63.0889   80.4657   13.9526 C.ar    1  UNL1        0.0001
     16 C          63.5901   81.7972   14.4275 C.ar    1  UNL1        0.0042
     17 C          63.5597   82.9816   13.5076 C.ar    1  UNL1        0.0492
     18 C          64.0610   84.3133   13.9826 C.2     1  UNL1        0.2424
     19 N          65.5307   84.6125   13.9613 N.am    1  UNL1       -0.3253
     20 O          63.0925   85.3457   14.4789 O.2     1  UNL1       -0.2704
     21 H          66.1663   83.9349   13.6356 H       1  UNL1        0.1453
     22 H          65.8597   85.4864   14.2731 H       1  UNL1        0.1453
     23 C          61.7137   87.7741   11.1784 C.3     1  UNL1        0.0811
     24 C          62.5756   88.9659   11.4727 C.2     1  UNL1        0.0613
     25 C          63.0289   89.9933   10.4782 C.2     1  UNL1        0.0161
     26 C          63.8691   91.0020   11.2040 C.2     1  UNL1        0.0195
     27 C          64.5825   92.2362   10.7373 C.2     1  UNL1        0.0388
     28 C          65.3620   93.0663   11.7137 C.2     1  UNL1        0.1823
     29 N          65.4279   92.6623   13.1567 N.2     1  UNL1       -0.2468
     30 C          64.7145   91.4282   13.6234 C.3     1  UNL1        0.1722
     31 C          63.9350   90.5980   12.6471 C.2     1  UNL1        0.0833
     32 N          63.1356   89.3396   12.8131 N.2     1  UNL1       -0.2519
     33 S          66.0755   94.3005   11.2470 S.O2    1  UNL1        0.0265
     34 C          66.7890   95.5346   10.7803 C.3     1  UNL1        0.1834
     35 O          66.1350   94.8004   12.6600 O.2     1  UNL1       -0.1671
     36 O          66.0160   93.8006    9.8340 O.2     1  UNL1       -0.1671
@<TRIPOS>BOND
     1     9    10    1
     2    10    11    1
     3    10     8    1
     4     8     1    1
     5     1     2    1
     6     1    23    1
     7    23    24    1
     8    24    25    2
     9    25    26    1
    10    26    27    2
    11    27    28    1
    12    28    33    1
    13    33    34    1
    14    33    35    2
    15    33    36    2
    16    28    29    2
    17    29    30    1
    18    30    31    1
    19    31    32    2
    20     1     4    1
    21     4     5    1
    22     4     6    1
    23     4     7    1
    24    10    12    1
    25    12    13   ar
    26    13    14   ar
    27    14    15   ar
    28    15    16   ar
    29    16    17   ar
    30    17    18    1
    31    18    19   am
    32    18    20    2
    33    32    24    1
    34    17    12   ar
    35    31    26    1
    36     2     3    1
    37    19    21    1
    38    19    22    1
@<TRIPOS>MOLECULE
*****
 36 38 0 0 0
SMALL
GASTEIGER

@<TRIPOS>ATOM
      1 C          63.6690   86.8836   15.7371 C.3     1  UNL1        0.1812
      2 O          64.2170   87.0901   14.3562 O.3     1  UNL1       -0.3784
      3 H          64.4444   86.2313   13.9668 H       1  UNL1        0.2106
      4 C          63.1209   86.6772   17.1180 C.3     1  UNL1        0.4197
      5 F          62.5728   86.4706   18.4990 F       1  UNL1       -0.1676
      6 F          62.3566   87.9631   17.0070 F       1  UNL1       -0.1676
      7 F          63.8851   85.3913   17.2290 F       1  UNL1       -0.1676
      8 C          63.8481   85.4019   15.5867 C.3     1  UNL1        0.0398
      9 C          62.1825   84.9968   14.3370 C.3     1  UNL1        0.0045
     10 C          63.6602   84.7561   14.2459 C.3     1  UNL1        0.0216
     11 C          65.1380   84.5154   14.1549 C.3     1  UNL1        0.0045
     12 C          63.4724   84.1102   12.9052 C.ar    1  UNL1       -0.0184
     13 C          63.5098   84.9444   11.6590 C.ar    1  UNL1       -0.0041
     14 C          63.3220   84.2985   10.3183 C.ar    1  UNL1       -0.0003
     15 C          63.0967   82.8185   10.2237 C.ar    1  UNL1        0.0001
     16 C          63.0593   81.9844   11.4698 C.ar    1  UNL1        0.0042
     17 C          63.2472   82.6303   12.8106 C.ar    1  UNL1        0.0492
     18 C          63.2097   81.7961   14.0567 C.2     1  UNL1        0.2424
     19 N          61.9467   81.7054   14.8608 N.am    1  UNL1       -0.3253
     20 O          64.4353   81.0528   14.4987 O.2     1  UNL1       -0.2704
     21 H          61.1424   82.1933   14.5707 H       1  UNL1        0.1453
     22 H          61.9222   81.1579   15.6787 H       1  UNL1        0.1453
     23 C          63.4898   88.3653   15.8876 C.3     1  UNL1        0.0811
     24 C          63.8148   89.2799   14.7440 C.2     1  UNL1        0.0613
     25 C          64.9793   90.2228   14.6725 C.2     1  UNL1        0.0161
     26 C          64.9165   90.9379   13.3554 C.2     1  UNL1        0.0195
     27 C          65.7995   91.9805   12.7363 C.2     1  UNL1        0.0388
     28 C          65.4793   92.5222   11.3746 C.2     1  UNL1        0.1823
     29 N          64.2760   92.0213   10.6322 N.2     1  UNL1       -0.2468
     30 C          63.3930   90.9788   11.2513 C.3     1  UNL1        0.1722
     31 C          63.7132   90.4371   12.6129 C.2     1  UNL1        0.0833
     32 N          63.0323   89.4123   13.4711 N.2     1  UNL1       -0.2519
     33 S          66.3623   93.5648   10.7555 S.O2    1  UNL1        0.0265
     34 C          67.2454   94.6073   10.1364 C.3     1  UNL1        0.1834
     35 O          67.5451   92.6556   10.9115 O.2     1  UNL1       -0.1671
     36 O          65.1795   94.4739   10.5995 O.2     1  UNL1       -0.1671
@<TRIPOS>BOND
     1     9    10    1
     2    10    11    1
     3    10     8    1
     4     8     1    1
     5     1     2    1
     6     1    23    1
     7    23    24    1
     8    24    25    2
     9    25    26    1
    10    26    27    2
    11    27    28    1
    12    28    33    1
    13    33    34    1
    14    33    35    2
    15    33    36    2
    16    28    29    2
    17    29    30    1
    18    30    31    1
    19    31    32    2
    20     1     4    1
    21     4     5    1
    22     4     6    1
    23     4     7    1
    24    10    12    1
    25    12    13   ar
    26    13    14   ar
    27    14    15   ar
    28    15    16   ar
    29    16    17   ar
    30    17    18    1
    31    18    19   am
    32    18    20    2
    33    32    24    1
    34    17    12   ar
    35    31    26    1
    36     2     3    1
    37    19    21    1
    38    19    22    1
@<TRIPOS>MOLECULE
*****
 36 38 0 0 0
SMALL
GASTEIGER

@<TRIPOS>ATOM
      1 C          62.3909   86.5123   10.7697 C.3     1  UNL1        0.1812
      2 O          63.1307   86.3548   12.0650 O.3     1  UNL1       -0.3784
      3 H          63.6460   85.5333   12.0452 H       1  UNL1        0.2106
      4 C          61.6511   86.6697    9.4743 C.3     1  UNL1        0.4197
      5 F          60.9113   86.8271    8.1789 F       1  UNL1       -0.1676
      6 F          60.3977   86.9984   10.2301 F       1  UNL1       -0.1676
      7 F          62.9044   86.3410    8.7186 F       1  UNL1       -0.1676
      8 C          62.9746   85.2204   10.2792 C.3     1  UNL1        0.0398
      9 C          64.2989   83.5871   10.5597 C.3     1  UNL1        0.0045
     10 C          63.0036   84.0209   11.1794 C.3     1  UNL1        0.0216
     11 C          61.7083   84.4547   11.7991 C.3     1  UNL1        0.0045
     12 C          63.0326   82.8214   12.0796 C.ar    1  UNL1       -0.0184
     13 C          62.5730   81.4883   11.5678 C.ar    1  UNL1       -0.0041
     14 C          62.6020   80.2888   12.4680 C.ar    1  UNL1       -0.0003
     15 C          63.0906   80.4224   13.8800 C.ar    1  UNL1        0.0001
     16 C          63.5501   81.7554   14.3917 C.ar    1  UNL1        0.0042
     17 C          63.5211   82.9549   13.4915 C.ar    1  UNL1        0.0492
     18 C          63.9807   84.2880   14.0032 C.2     1  UNL1        0.2424
     19 N          65.4231   84.6812   13.8819 N.am    1  UNL1       -0.3253
     20 O          62.9978   85.2277   14.6363 O.2     1  UNL1       -0.2704
     21 H          66.0682   84.0644   13.4664 H       1  UNL1        0.1453
     22 H          65.7247   85.5561   14.2178 H       1  UNL1        0.1453
     23 C          61.8072   87.8040   11.2600 C.3     1  UNL1        0.0811
     24 C          62.7119   88.9258   11.6759 C.2     1  UNL1        0.0613
     25 C          63.4457   89.0296   12.9801 C.2     1  UNL1        0.0161
     26 C          64.2291   90.3087   12.9708 C.2     1  UNL1        0.0195
     27 C          65.1374   90.9368   13.9859 C.2     1  UNL1        0.0388
     28 C          65.7962   92.2518   13.6910 C.2     1  UNL1        0.1823
     29 N          65.5466   92.9387   12.3811 N.2     1  UNL1       -0.2468
     30 C          64.6382   92.3106   11.3660 C.3     1  UNL1        0.1722
     31 C          63.9795   90.9956   11.6608 C.2     1  UNL1        0.0833
     32 N          63.0418   90.1409   10.8605 N.2     1  UNL1       -0.2519
     33 S          66.7045   92.8799   14.7061 S.O2    1  UNL1        0.0265
     34 C          67.6129   93.5079   15.7212 C.3     1  UNL1        0.1834
     35 O          65.6294   92.7560   15.7448 O.2     1  UNL1       -0.1671
     36 O          67.7796   93.0037   13.6674 O.2     1  UNL1       -0.1671
@<TRIPOS>BOND
     1     9    10    1
     2    10    11    1
     3    10     8    1
     4     8     1    1
     5     1     2    1
     6     1    23    1
     7    23    24    1
     8    24    25    2
     9    25    26    1
    10    26    27    2
    11    27    28    1
    12    28    33    1
    13    33    34    1
    14    33    35    2
    15    33    36    2
    16    28    29    2
    17    29    30    1
    18    30    31    1
    19    31    32    2
    20     1     4    1
    21     4     5    1
    22     4     6    1
    23     4     7    1
    24    10    12    1
    25    12    13   ar
    26    13    14   ar
    27    14    15   ar
    28    15    16   ar
    29    16    17   ar
    30    17    18    1
    31    18    19   am
    32    18    20    2
    33    32    24    1
    34    17    12   ar
    35    31    26    1
    36     2     3    1
    37    19    21    1
    38    19    22    1
@<TRIPOS>MOLECULE
*****
 36 38 0 0 0
SMALL
GASTEIGER

@<TRIPOS>ATOM
      1 C          63.6134   87.4361   15.6863 C.3     1  UNL1        0.1812
      2 O          64.2752   87.5474   14.3449 O.3     1  UNL1       -0.3784
      3 H          64.5986   86.6750   14.0705 H       1  UNL1        0.2106
      4 C          62.9515   87.3247   17.0278 C.3     1  UNL1        0.4197
      5 F          62.2897   87.2134   18.3693 F       1  UNL1       -0.1676
      6 F          63.6909   86.0454   17.2864 F       1  UNL1       -0.1676
      7 F          62.2122   88.6040   16.7692 F       1  UNL1       -0.1676
      8 C          63.9098   85.9658   15.7106 C.3     1  UNL1        0.0398
      9 C          65.3399   85.4276   14.2392 C.3     1  UNL1        0.0045
     10 C          63.8752   85.1726   14.4379 C.3     1  UNL1        0.0216
     11 C          62.4104   84.9177   14.6366 C.3     1  UNL1        0.0045
     12 C          63.8406   84.3795   13.1652 C.ar    1  UNL1       -0.0184
     13 C          64.4924   83.0298   13.1047 C.ar    1  UNL1       -0.0041
     14 C          64.4578   82.2367   11.8320 C.ar    1  UNL1       -0.0003
     15 C          63.7714   82.7932   10.6198 C.ar    1  UNL1        0.0001
     16 C          63.1197   84.1429   10.6804 C.ar    1  UNL1        0.0042
     17 C          63.1543   84.9360   11.9531 C.ar    1  UNL1        0.0492
     18 C          62.5025   86.2857   12.0137 C.2     1  UNL1        0.2424
     19 N          61.0255   86.4162   11.7866 N.am    1  UNL1       -0.3253
     20 O          63.3277   87.5048   12.3013 O.2     1  UNL1       -0.2704
     21 H          60.4839   85.6160   11.5979 H       1  UNL1        0.1453
     22 H          60.5978   87.3020   11.8264 H       1  UNL1        0.1453
     23 C          63.3169   88.9062   15.6621 C.3     1  UNL1        0.0811
     24 C          64.1724   89.8305   14.8474 C.2     1  UNL1        0.0613
     25 C          63.7757   90.4968   13.5633 C.2     1  UNL1        0.0161
     26 C          64.9329   91.3288   13.0959 C.2     1  UNL1        0.0195
     27 C          65.1178   92.2053   11.8927 C.2     1  UNL1        0.0388
     28 C          66.4148   92.9297   11.6847 C.2     1  UNL1        0.1823
     29 N          67.5268   92.7776   12.6798 N.2     1  UNL1       -0.2468
     30 C          67.3419   91.9011   13.8830 C.3     1  UNL1        0.1722
     31 C          66.0450   91.1768   14.0911 C.2     1  UNL1        0.0833
     32 N          65.5750   90.2507   15.1735 N.2     1  UNL1       -0.2519
     33 S          66.5996   93.8061   10.4815 S.O2    1  UNL1        0.0265
     34 C          66.7845   94.6826    9.2783 C.3     1  UNL1        0.1834
     35 O          65.3961   94.6076   10.8804 O.2     1  UNL1       -0.1671
     36 O          67.8032   93.0046   10.0826 O.2     1  UNL1       -0.1671
@<TRIPOS>BOND
     1     9    10    1
     2    10    11    1
     3    10     8    1
     4     8     1    1
     5     1     2    1
     6     1    23    1
     7    23    24    1
     8    24    25    2
     9    25    26    1
    10    26    27    2
    11    27    28    1
    12    28    33    1
    13    33    34    1
    14    33    35    2
    15    33    36    2
    16    28    29    2
    17    29    30    1
    18    30    31    1
    19    31    32    2
    20     1     4    1
    21     4     5    1
    22     4     6    1
    23     4     7    1
    24    10    12    1
    25    12    13   ar
    26    13    14   ar
    27    14    15   ar
    28    15    16   ar
    29    16    17   ar
    30    17    18    1
    31    18    19   am
    32    18    20    2
    33    32    24    1
    34    17    12   ar
    35    31    26    1
    36     2     3    1
    37    19    21    1
    38    19    22    1
@<TRIPOS>MOLECULE
*****
 36 38 0 0 0
SMALL
GASTEIGER

@<TRIPOS>ATOM
      1 C          61.4465   88.3497   10.4176 C.3     1  UNL1        0.1812
      2 O          62.4663   88.0165   11.4659 O.3     1  UNL1       -0.3784
      3 H          62.4020   87.0754   11.6919 H       1  UNL1        0.2106
      4 C          60.4267   88.6829    9.3693 C.3     1  UNL1        0.4197
      5 F          59.4069   89.0161    8.3209 F       1  UNL1       -0.1676
      6 F          59.5529   87.5690    9.8652 F       1  UNL1       -0.1676
      7 F          61.3004   89.7967    8.8734 F       1  UNL1       -0.1676
      8 C          60.9806   86.9238   10.4176 C.3     1  UNL1        0.0398
      9 C          62.6599   86.1506    9.3774 C.3     1  UNL1        0.0045
     10 C          61.9605   85.8146   10.6611 C.3     1  UNL1        0.0216
     11 C          61.2612   85.4786   11.9449 C.3     1  UNL1        0.0045
     12 C          62.9405   84.7054   10.9047 C.ar    1  UNL1       -0.0184
     13 C          63.3230   83.7833    9.7851 C.ar    1  UNL1       -0.0041
     14 C          64.3030   82.6741   10.0287 C.ar    1  UNL1       -0.0003
     15 C          64.9004   82.4870   11.3919 C.ar    1  UNL1        0.0001
     16 C          64.5179   83.4091   12.5114 C.ar    1  UNL1        0.0042
     17 C          63.5379   84.5183   12.2678 C.ar    1  UNL1        0.0492
     18 C          63.1553   85.4404   13.3874 C.2     1  UNL1        0.2424
     19 N          63.7174   86.8301   13.4397 N.am    1  UNL1       -0.3253
     20 O          62.2107   84.9727   14.4546 O.2     1  UNL1       -0.2704
     21 H          64.3374   87.1370   12.7393 H       1  UNL1        0.1453
     22 H          63.4663   87.4353   14.1745 H       1  UNL1        0.1453
     23 C          61.9123   89.7755   10.4176 C.3     1  UNL1        0.0811
     24 C          62.7587   90.2879   11.5450 C.2     1  UNL1        0.0613
     25 C          63.9837   91.1431   11.4098 C.2     1  UNL1        0.0161
     26 C          64.5108   91.4189   12.7867 C.2     1  UNL1        0.0195
     27 C          65.6934   92.2051   13.2699 C.2     1  UNL1        0.0388
     28 C          65.9769   92.3065   14.7395 C.2     1  UNL1        0.1823
     29 N          65.0778   91.6217   15.7257 N.2     1  UNL1       -0.2468
     30 C          63.8952   90.8355   15.2425 C.3     1  UNL1        0.1722
     31 C          63.6117   90.7341   13.7730 C.2     1  UNL1        0.0833
     32 N          62.5288   90.0351   13.0056 N.2     1  UNL1       -0.2519
     33 S          67.1594   93.0926   15.2227 S.O2    1  UNL1        0.0265
     34 C          68.3420   93.8788   15.7059 C.3     1  UNL1        0.1834
     35 O          66.6517   92.9911   16.6304 O.2     1  UNL1       -0.1671
     36 O          67.6672   93.1941   13.8149 O.2     1  UNL1       -0.1671
@<TRIPOS>BOND
     1     9    10    1
     2    10    11    1
     3    10     8    1
     4     8     1    1
     5     1     2    1
     6     1    23    1
     7    23    24    1
     8    24    25    2
     9    25    26    1
    10    26    27    2
    11    27    28    1
    12    28    33    1
    13    33    34    1
    14    33    35    2
    15    33    36    2
    16    28    29    2
    17    29    30    1
    18    30    31    1
    19    31    32    2
    20     1     4    1
    21     4     5    1
    22     4     6    1
    23     4     7    1
    24    10    12    1
    25    12    13   ar
    26    13    14   ar
    27    14    15   ar
    28    15    16   ar
    29    16    17   ar
    30    17    18    1
    31    18    19   am
    32    18    20    2
    33    32    24    1
    34    17    12   ar
    35    31    26    1
    36     2     3    1
    37    19    21    1
    38    19    22    1
@<TRIPOS>MOLECULE
*****
 36 38 0 0 0
SMALL
GASTEIGER

@<TRIPOS>ATOM
      1 C          61.6485   88.7678   11.5392 C.3     1  UNL1        0.1812
      2 O          63.0936   88.3661   11.5566 O.3     1  UNL1       -0.3784
      3 H          63.2226   87.5977   10.9788 H       1  UNL1        0.2106
      4 C          60.2035   89.1696   11.5217 C.3     1  UNL1        0.4197
      5 F          58.7583   89.5713   11.5042 F       1  UNL1       -0.1676
      6 F          60.3020   89.5867   12.9592 F       1  UNL1       -0.1676
      7 F          60.1049   88.7524   10.0843 F       1  UNL1       -0.1676
      8 C          61.3491   87.6496   10.5852 C.3     1  UNL1        0.0398
      9 C          61.2953   85.9370   11.8358 C.3     1  UNL1        0.0045
     10 C          62.1257   86.3687   10.6636 C.3     1  UNL1        0.0216
     11 C          62.9561   86.8003    9.4914 C.3     1  UNL1        0.0045
     12 C          62.9023   85.0877   10.7420 C.ar    1  UNL1       -0.0184
     13 C          63.1539   84.2860    9.4995 C.ar    1  UNL1       -0.0041
     14 C          63.9305   83.0050    9.5779 C.ar    1  UNL1       -0.0003
     15 C          64.4555   82.5259   10.8989 C.ar    1  UNL1        0.0001
     16 C          64.2038   83.3277   12.1414 C.ar    1  UNL1        0.0042
     17 C          63.4272   84.6086   12.0630 C.ar    1  UNL1        0.0492
     18 C          63.1755   85.4104   13.3055 C.2     1  UNL1        0.2424
     19 N          62.2571   84.8808   14.3666 N.am    1  UNL1       -0.3253
     20 O          63.8423   86.7417   13.4869 O.2     1  UNL1       -0.2704
     21 H          61.8195   84.0070   14.2476 H       1  UNL1        0.1453
     22 H          62.0920   85.4071   15.1821 H       1  UNL1        0.1453
     23 C          61.9479   89.8860   12.4931 C.3     1  UNL1        0.0811
     24 C          63.0684   90.8399   12.2026 C.2     1  UNL1        0.0613
     25 C          63.3097   91.5467   10.9017 C.2     1  UNL1        0.0161
     26 C          64.5349   92.3981   11.0570 C.2     1  UNL1        0.0195
     27 C          65.2473   93.3145   10.1070 C.2     1  UNL1        0.0388
     28 C          66.4758   94.0503   10.5539 C.2     1  UNL1        0.1823
     29 N          66.9916   93.8698   11.9507 N.2     1  UNL1       -0.2468
     30 C          66.2791   92.9534   12.9008 C.3     1  UNL1        0.1722
     31 C          65.0508   92.2175   12.4539 C.2     1  UNL1        0.0833
     32 N          64.1444   91.2545   13.1619 N.2     1  UNL1       -0.2519
     33 S          67.1883   94.9667    9.6038 S.O2    1  UNL1        0.0265
     34 C          67.9007   95.8831    8.6538 C.3     1  UNL1        0.1834
     35 O          65.9489   95.8027    9.4808 O.2     1  UNL1       -0.1671
     36 O          68.4276   94.1307    9.7269 O.2     1  UNL1       -0.1671
@<TRIPOS>BOND
     1     9    10    1
     2    10    11    1
     3    10     8    1
     4     8     1    1
     5     1     2    1
     6     1    23    1
     7    23    24    1
     8    24    25    2
     9    25    26    1
    10    26    27    2
    11    27    28    1
    12    28    33    1
    13    33    34    1
    14    33    35    2
    15    33    36    2
    16    28    29    2
    17    29    30    1
    18    30    31    1
    19    31    32    2
    20     1     4    1
    21     4     5    1
    22     4     6    1
    23     4     7    1
    24    10    12    1
    25    12    13   ar
    26    13    14   ar
    27    14    15   ar
    28    15    16   ar
    29    16    17   ar
    30    17    18    1
    31    18    19   am
    32    18    20    2
    33    32    24    1
    34    17    12   ar
    35    31    26    1
    36     2     3    1
    37    19    21    1
    38    19    22    1
@<TRIPOS>MOLECULE
*****
 36 38 0 0 0
SMALL
GASTEIGER

@<TRIPOS>ATOM
      1 C          61.5311   88.6731   11.3422 C.3     1  UNL1        0.1812
      2 O          63.0074   88.4388   11.4667 O.3     1  UNL1       -0.3784
      3 H          63.2717   87.7188   10.8729 H       1  UNL1        0.2106
      4 C          60.0548   88.9074   11.2177 C.3     1  UNL1        0.4197
      5 F          58.5784   89.1417   11.0931 F       1  UNL1       -0.1676
      6 F          60.0014   89.3352   12.6545 F       1  UNL1       -0.1676
      7 F          60.1081   88.4797    9.7810 F       1  UNL1       -0.1676
      8 C          61.4426   87.5750   10.3242 C.3     1  UNL1        0.0398
      9 C          61.3257   85.9556   11.6894 C.3     1  UNL1        0.0045
     10 C          62.2082   86.3011   10.5267 C.3     1  UNL1        0.0216
     11 C          63.0907   86.6465    9.3640 C.3     1  UNL1        0.0045
     12 C          62.9737   85.0271   10.7292 C.ar    1  UNL1       -0.0184
     13 C          63.2995   84.1530    9.5545 C.ar    1  UNL1       -0.0041
     14 C          64.0650   82.8791    9.7570 C.ar    1  UNL1       -0.0003
     15 C          64.5048   82.4793   11.1343 C.ar    1  UNL1        0.0001
     16 C          64.1791   83.3533   12.3089 C.ar    1  UNL1        0.0042
     17 C          63.4135   84.6273   12.1064 C.ar    1  UNL1        0.0492
     18 C          63.0878   85.5014   13.2811 C.2     1  UNL1        0.2424
     19 N          63.7735   86.8254   13.4438 N.am    1  UNL1       -0.3253
     20 O          62.0762   85.0513   14.2932 O.2     1  UNL1       -0.2704
     21 H          64.4374   87.1208   12.7795 H       1  UNL1        0.1453
     22 H          63.5597   87.3991   14.2148 H       1  UNL1        0.1453
     23 C          61.6195   89.7712   12.3602 C.3     1  UNL1        0.0811
     24 C          62.9249   90.4709   12.5971 C.2     1  UNL1        0.0613
     25 C          63.6562   90.5543   13.9042 C.2     1  UNL1        0.0161
     26 C          64.9116   91.3450   13.6834 C.2     1  UNL1        0.0195
     27 C          66.0198   91.7484   14.6103 C.2     1  UNL1        0.0388
     28 C          67.1727   92.5571   14.0937 C.2     1  UNL1        0.1823
     29 N          67.2173   92.9625   12.6502 N.2     1  UNL1       -0.2468
     30 C          66.1091   92.5591   11.7233 C.3     1  UNL1        0.1722
     31 C          64.9562   91.7505   12.2399 C.2     1  UNL1        0.0833
     32 N          63.7284   91.2102   11.5685 N.2     1  UNL1       -0.2519
     33 S          68.2810   92.9604   15.0206 S.O2    1  UNL1        0.0265
     34 C          69.3892   93.3637   15.9475 C.3     1  UNL1        0.1834
     35 O          69.2908   92.4558   14.0328 O.2     1  UNL1       -0.1671
     36 O          67.2712   93.4649   16.0084 O.2     1  UNL1       -0.1671
@<TRIPOS>BOND
     1     9    10    1
     2    10    11    1
     3    10     8    1
     4     8     1    1
     5     1     2    1
     6     1    23    1
     7    23    24    1
     8    24    25    2
     9    25    26    1
    10    26    27    2
    11    27    28    1
    12    28    33    1
    13    33    34    1
    14    33    35    2
    15    33    36    2
    16    28    29    2
    17    29    30    1
    18    30    31    1
    19    31    32    2
    20     1     4    1
    21     4     5    1
    22     4     6    1
    23     4     7    1
    24    10    12    1
    25    12    13   ar
    26    13    14   ar
    27    14    15   ar
    28    15    16   ar
    29    16    17   ar
    30    17    18    1
    31    18    19   am
    32    18    20    2
    33    32    24    1
    34    17    12   ar
    35    31    26    1
    36     2     3    1
    37    19    21    1
    38    19    22    1
@<TRIPOS>MOLECULE
*****
 36 38 0 0 0
SMALL
GASTEIGER

@<TRIPOS>ATOM
      1 C          62.0926   89.3107   10.7053 C.3     1  UNL1        0.1812
      2 O          63.3362   88.9139   11.4441 O.3     1  UNL1       -0.3784
      3 H          63.6332   89.6529   11.9977 H       1  UNL1        0.2106
      4 C          60.8490   89.7076    9.9666 C.3     1  UNL1        0.4197
      5 F          59.6052   90.1045    9.2277 F       1  UNL1       -0.1676
      6 F          60.4703   90.6210   11.0946 F       1  UNL1       -0.1676
      7 F          61.2275   88.7942    8.8386 F       1  UNL1       -0.1676
      8 C          62.1399   90.6633   11.3523 C.3     1  UNL1        0.0398
      9 C          64.0571   91.3405   10.7476 C.3     1  UNL1        0.0045
     10 C          63.3809   91.1100   12.0666 C.3     1  UNL1        0.0216
     11 C          62.7047   90.8795   13.3855 C.3     1  UNL1        0.0045
     12 C          64.6220   91.5567   12.7808 C.ar    1  UNL1       -0.0184
     13 C          65.4568   92.6655   12.2119 C.ar    1  UNL1       -0.0041
     14 C          66.6979   93.1123   12.9262 C.ar    1  UNL1       -0.0003
     15 C          67.1041   92.4502   14.2094 C.ar    1  UNL1        0.0001
     16 C          66.2692   91.3415   14.7784 C.ar    1  UNL1        0.0042
     17 C          65.0282   90.8947   14.0641 C.ar    1  UNL1        0.0492
     18 C          64.1933   89.7859   14.6331 C.2     1  UNL1        0.2424
     19 N          64.2869   88.4047   14.0558 N.am    1  UNL1       -0.3253
     20 O          63.2650   90.0585   15.7793 O.2     1  UNL1       -0.2704
     21 H          64.8962   88.2258   13.3035 H       1  UNL1        0.1453
     22 H          63.7390   87.6769   14.4292 H       1  UNL1        0.1453
     23 C          62.0453   87.9583   10.0584 C.3     1  UNL1        0.0811
     24 C          62.2665   86.7246   10.8824 C.2     1  UNL1        0.0613
     25 C          62.0642   85.3105   10.4247 C.2     1  UNL1        0.0161
     26 C          62.4016   84.4003   11.5682 C.2     1  UNL1        0.0195
     27 C          62.3877   82.9061   11.6996 C.2     1  UNL1        0.0388
     28 C          62.7848   82.2635   12.9955 C.2     1  UNL1        0.1823
     29 N          63.1957   83.1150   14.1600 N.2     1  UNL1       -0.2468
     30 C          63.2095   84.6092   14.0286 C.3     1  UNL1        0.1722
     31 C          62.8125   85.2518   12.7328 C.2     1  UNL1        0.0833
     32 N          62.7290   86.6884   12.3089 N.2     1  UNL1       -0.2519
     33 S          62.7710   80.7693   13.1269 S.O2    1  UNL1        0.0265
     34 C          62.7572   79.2751   13.2583 C.3     1  UNL1        0.1834
     35 O          62.8514   80.6374   11.6349 O.2     1  UNL1       -0.1671
     36 O          62.6906   80.9013   14.6189 O.2     1  UNL1       -0.1671
@<TRIPOS>BOND
     1     9    10    1
     2    10    11    1
     3    10     8    1
     4     8     1    1
     5     1     2    1
     6     1    23    1
     7    23    24    1
     8    24    25    2
     9    25    26    1
    10    26    27    2
    11    27    28    1
    12    28    33    1
    13    33    34    1
    14    33    35    2
    15    33    36    2
    16    28    29    2
    17    29    30    1
    18    30    31    1
    19    31    32    2
    20     1     4    1
    21     4     5    1
    22     4     6    1
    23     4     7    1
    24    10    12    1
    25    12    13   ar
    26    13    14   ar
    27    14    15   ar
    28    15    16   ar
    29    16    17   ar
    30    17    18    1
    31    18    19   am
    32    18    20    2
    33    32    24    1
    34    17    12   ar
    35    31    26    1
    36     2     3    1
    37    19    21    1
    38    19    22    1
@<TRIPOS>MOLECULE
*****
 36 38 0 0 0
SMALL
GASTEIGER

@<TRIPOS>ATOM
      1 C          61.5382   88.9677   10.2335 C.3     1  UNL1        0.1812
      2 O          62.6862   88.4043   11.0174 O.3     1  UNL1       -0.3784
      3 H          62.9206   89.0162   11.7326 H       1  UNL1        0.2106
      4 C          60.3901   89.5311    9.4496 C.3     1  UNL1        0.4197
      5 F          59.2420   90.0945    8.6657 F       1  UNL1       -0.1676
      6 F          60.7646   88.6683    8.2810 F       1  UNL1       -0.1676
      7 F          60.0157   90.3938   10.6181 F       1  UNL1       -0.1676
      8 C          61.5166   90.1705   11.1295 C.3     1  UNL1        0.0398
      9 C          62.1565   90.4941   13.1260 C.3     1  UNL1        0.0045
     10 C          62.7843   90.6495   11.7725 C.3     1  UNL1        0.0216
     11 C          63.4121   90.8050   10.4191 C.3     1  UNL1        0.0045
     12 C          64.0520   91.1286   12.4156 C.ar    1  UNL1       -0.0184
     13 C          64.7670   92.3260   11.8634 C.ar    1  UNL1       -0.0041
     14 C          66.0347   92.8050   12.5064 C.ar    1  UNL1       -0.0003
     15 C          66.5874   92.0866   13.7017 C.ar    1  UNL1        0.0001
     16 C          65.8723   90.8892   14.2538 C.ar    1  UNL1        0.0042
     17 C          64.6046   90.4102   13.6108 C.ar    1  UNL1        0.0492
     18 C          63.8895   89.2128   14.1630 C.2     1  UNL1        0.2424
     19 N          63.1876   89.3023   15.4856 N.am    1  UNL1       -0.3253
     20 O          63.8764   87.9258   13.3925 O.2     1  UNL1       -0.2704
     21 H          63.1963   90.1470   15.9912 H       1  UNL1        0.1453
     22 H          62.7183   88.5164   15.8480 H       1  UNL1        0.1453
     23 C          61.5597   87.7649    9.3375 C.3     1  UNL1        0.0811
     24 C          62.0697   86.4529    9.8555 C.2     1  UNL1        0.0613
     25 C          61.6366   85.7768   11.1227 C.2     1  UNL1        0.0161
     26 C          62.4015   84.4926   11.2477 C.2     1  UNL1        0.0195
     27 C          62.3902   83.4152   12.2913 C.2     1  UNL1        0.0388
     28 C          63.2848   82.2200   12.1450 C.2     1  UNL1        0.1823
     29 N          64.1907   82.1023   10.9552 N.2     1  UNL1       -0.2468
     30 C          64.2019   83.1797    9.9117 C.3     1  UNL1        0.1722
     31 C          63.3074   84.3748   10.0579 C.2     1  UNL1        0.0833
     32 N          63.1023   85.5864    9.1975 N.2     1  UNL1       -0.2519
     33 S          63.2736   81.1425   13.1886 S.O2    1  UNL1        0.0265
     34 C          63.2623   80.0651   14.2321 C.3     1  UNL1        0.1834
     35 O          63.7926   82.1189   14.2022 O.2     1  UNL1       -0.1671
     36 O          62.7545   80.1662   12.1750 O.2     1  UNL1       -0.1671
@<TRIPOS>BOND
     1     9    10    1
     2    10    11    1
     3    10     8    1
     4     8     1    1
     5     1     2    1
     6     1    23    1
     7    23    24    1
     8    24    25    2
     9    25    26    1
    10    26    27    2
    11    27    28    1
    12    28    33    1
    13    33    34    1
    14    33    35    2
    15    33    36    2
    16    28    29    2
    17    29    30    1
    18    30    31    1
    19    31    32    2
    20     1     4    1
    21     4     5    1
    22     4     6    1
    23     4     7    1
    24    10    12    1
    25    12    13   ar
    26    13    14   ar
    27    14    15   ar
    28    15    16   ar
    29    16    17   ar
    30    17    18    1
    31    18    19   am
    32    18    20    2
    33    32    24    1
    34    17    12   ar
    35    31    26    1
    36     2     3    1
    37    19    21    1
    38    19    22    1
