@<TRIPOS>MOLECULE
*****
 31 35 0 0 0
SMALL
GASTEIGER

@<TRIPOS>ATOM
      1 C          62.8335   85.4472   12.7582 C.ar    1  UNL1        0.0012
      2 C          62.1465   86.1421   11.6201 C.ar    1  UNL1        0.0055
      3 C          62.3420   87.6147   11.4126 C.ar    1  UNL1        0.0907
      4 C          63.2246   88.3926   12.3433 C.ar    1  UNL1        0.1063
      5 N          63.6042   89.8430   12.3888 N.ar    1  UNL1       -0.1693
      6 N          64.5258   90.0446   13.5549 N.ar    1  UNL1       -0.2486
      7 C          64.7157   88.7187   14.2302 C.ar    1  UNL1        0.0966
      8 C          63.9115   87.6977   13.4814 C.ar    1  UNL1        0.0380
      9 C          63.7160   86.2250   13.6889 C.ar    1  UNL1        0.0031
     10 O          62.0513   79.5565   13.5879 O.2     1  UNL1       -0.2670
     11 C          62.2469   81.0292   13.3804 C.ar    1  UNL1        0.2607
     12 C          61.8280   81.9988   14.4455 C.ar    1  UNL1        0.0608
     13 C          62.0236   83.4714   14.2381 C.ar    1  UNL1        0.0060
     14 C          62.6380   83.9745   12.9656 C.ar    1  UNL1        0.0119
     15 C          63.0569   83.0050   11.9005 C.ar    1  UNL1        0.0398
     16 N          62.8614   81.5323   12.1079 N.ar    1  UNL1       -0.2992
     17 C          63.3683   80.8211   10.8884 C.3     1  UNL1        0.1091
     18 C          63.8772   81.8542    9.9273 C.3     1  UNL1        0.0308
     19 C          63.6847   83.2039   10.5528 C.3     1  UNL1        0.0459
     20 C          65.1482   91.3440   13.9725 C.3     1  UNL1        0.1404
     21 C          65.3407   91.6497   15.4284 C.3     1  UNL1        0.0443
     22 C          65.9631   92.9490   15.8460 C.3     1  UNL1        0.0707
     23 N          66.3930   93.9426   14.8076 N.3     1  UNL1       -0.2951
     24 C          66.2006   93.6368   13.3519 C.3     1  UNL1        0.1063
     25 C          65.5782   92.3375   12.9343 C.3     1  UNL1        0.1988
     26 F          65.3857   92.0317   11.4784 F       1  UNL1       -0.2337
     27 H          67.3913   94.0998   14.9460 H       1  UNL1        0.1233
     28 C          61.6551   88.3095   10.2746 C.3     1  UNL1        0.4200
     29 F          60.9681   89.0044    9.1365 F       1  UNL1       -0.1658
     30 F          60.7401   88.9951   11.2455 F       1  UNL1       -0.1658
     31 F          62.5701   87.6239    9.3037 F       1  UNL1       -0.1658
@<TRIPOS>BOND
     1    10    11    2
     2    11    12   ar
     3    12    13   ar
     4    13    14   ar
     5    14     1    1
     6     1     2   ar
     7     2     3   ar
     8     3    28    1
     9    28    29    1
    10    28    30    1
    11    28    31    1
    12     3     4   ar
    13     4     5   ar
    14     5     6   ar
    15    20     6    1
    16    20    21    1
    17    21    22    1
    18    22    23    1
    19    23    24    1
    20    24    25    1
    21    25    26    1
    22     6     7   ar
    23     7     8   ar
    24     8     9   ar
    25    14    15   ar
    26    15    16   ar
    27    16    17    1
    28    17    18    1
    29    18    19    1
    30    16    11   ar
    31     9     1   ar
    32    19    15    1
    33     8     4   ar
    34    25    20    1
    35    23    27    1
@<TRIPOS>MOLECULE
*****
 31 35 0 0 0
SMALL
GASTEIGER

@<TRIPOS>ATOM
      1 C          62.9560   84.8794   11.8421 C.ar    1  UNL1        0.0012
      2 C          62.1987   85.7875   10.9190 C.ar    1  UNL1        0.0055
      3 C          62.2040   87.2690   11.1533 C.ar    1  UNL1        0.0907
      4 C          62.9666   87.8426   12.3108 C.ar    1  UNL1        0.1063
      5 N          63.1542   89.2515   12.7898 N.ar    1  UNL1       -0.1693
      6 N          64.0273   89.2143   14.0089 N.ar    1  UNL1       -0.2486
      7 C          64.3794   87.7823   14.2833 C.ar    1  UNL1        0.0966
      8 C          63.7238   86.9345   13.2338 C.ar    1  UNL1        0.0380
      9 C          63.7185   85.4529   12.9995 C.ar    1  UNL1        0.0031
     10 O          62.9348   78.9531   10.9043 O.2     1  UNL1       -0.2670
     11 C          62.9401   80.4347   11.1388 C.ar    1  UNL1        0.2607
     12 C          63.4422   81.3612   10.0713 C.ar    1  UNL1        0.0608
     13 C          63.4475   82.8427   10.3057 C.ar    1  UNL1        0.0060
     14 C          62.9507   83.3978   11.6076 C.ar    1  UNL1        0.0119
     15 C          62.4486   82.4714   12.6751 C.ar    1  UNL1        0.0398
     16 N          62.4433   80.9898   12.4407 N.ar    1  UNL1       -0.2992
     17 C          61.8931   80.3280   13.6693 C.3     1  UNL1        0.1091
     18 C          61.5584   81.4006   14.6630 C.3     1  UNL1        0.0308
     19 C          61.9017   82.7253   14.0486 C.3     1  UNL1        0.0459
     20 C          64.4706   90.4008   14.8125 C.3     1  UNL1        0.1404
     21 C          65.6007   91.2577   14.3239 C.3     1  UNL1        0.0443
     22 C          66.0441   92.4442   15.1275 C.3     1  UNL1        0.0707
     23 N          65.3572   92.7737   16.4197 N.3     1  UNL1       -0.2951
     24 C          64.2272   91.9169   16.9082 C.3     1  UNL1        0.1063
     25 C          63.7839   90.7305   16.1046 C.3     1  UNL1        0.1988
     26 F          62.6537   89.8735   16.5932 F       1  UNL1       -0.2337
     27 H          64.9892   93.7203   16.3244 H       1  UNL1        0.1233
     28 C          61.4468   88.1771   10.2303 C.3     1  UNL1        0.4200
     29 F          60.6896   89.0852    9.3073 F       1  UNL1       -0.1658
     30 F          60.1520   87.6479   10.7719 F       1  UNL1       -0.1658
     31 F          62.7417   88.7063    9.6887 F       1  UNL1       -0.1658
@<TRIPOS>BOND
     1    10    11    2
     2    11    12   ar
     3    12    13   ar
     4    13    14   ar
     5    14     1    1
     6     1     2   ar
     7     2     3   ar
     8     3    28    1
     9    28    29    1
    10    28    30    1
    11    28    31    1
    12     3     4   ar
    13     4     5   ar
    14     5     6   ar
    15    20     6    1
    16    20    21    1
    17    21    22    1
    18    22    23    1
    19    23    24    1
    20    24    25    1
    21    25    26    1
    22     6     7   ar
    23     7     8   ar
    24     8     9   ar
    25    14    15   ar
    26    15    16   ar
    27    16    17    1
    28    17    18    1
    29    18    19    1
    30    16    11   ar
    31     9     1   ar
    32    19    15    1
    33     8     4   ar
    34    25    20    1
    35    23    27    1
@<TRIPOS>MOLECULE
*****
 31 35 0 0 0
SMALL
GASTEIGER

@<TRIPOS>ATOM
      1 C          63.6743   89.5619   13.8700 C.ar    1  UNL1        0.0012
      2 C          62.8111   89.3648   12.6591 C.ar    1  UNL1        0.0055
      3 C          62.9885   90.2480   11.4598 C.ar    1  UNL1        0.0907
      4 C          64.0292   91.3283   11.4712 C.ar    1  UNL1        0.1063
      5 N          64.4313   92.3454   10.4448 N.ar    1  UNL1       -0.1693
      6 N          65.5430   93.1712   11.0213 N.ar    1  UNL1       -0.2486
      7 C          65.8280   92.6643   12.4040 C.ar    1  UNL1        0.0966
      8 C          64.8924   91.5253   12.6820 C.ar    1  UNL1        0.0380
      9 C          64.7150   90.6421   13.8815 C.ar    1  UNL1        0.0031
     10 O          62.9643   86.0291   18.6675 O.2     1  UNL1       -0.2670
     11 C          63.1418   86.9122   17.4681 C.ar    1  UNL1        0.2607
     12 C          62.8920   88.3872   17.5791 C.ar    1  UNL1        0.0608
     13 C          63.0695   89.2703   16.3798 C.ar    1  UNL1        0.0060
     14 C          63.4968   88.6787   15.0693 C.ar    1  UNL1        0.0119
     15 C          63.7467   87.2038   14.9582 C.ar    1  UNL1        0.0398
     16 N          63.5692   86.3206   16.1576 N.ar    1  UNL1       -0.2992
     17 C          63.8862   84.9129   15.7477 C.3     1  UNL1        0.1091
     18 C          64.2595   84.9262   14.2950 C.3     1  UNL1        0.0308
     19 C          64.1733   86.3420   13.8071 C.3     1  UNL1        0.0459
     20 C          66.2463   94.3048   10.3354 C.3     1  UNL1        0.1404
     21 C          65.8911   95.7223   10.6738 C.3     1  UNL1        0.0443
     22 C          66.5944   96.8559    9.9880 C.3     1  UNL1        0.0707
     23 N          67.6529   96.5719    8.9638 N.3     1  UNL1       -0.2951
     24 C          68.0080   95.1545    8.6254 C.3     1  UNL1        0.1063
     25 C          67.3048   94.0209    9.3112 C.3     1  UNL1        0.1988
     26 F          67.6599   92.6033    8.9728 F       1  UNL1       -0.2337
     27 H          68.5085   97.0194    9.2927 H       1  UNL1        0.1233
     28 C          62.1254   90.0510   10.2490 C.3     1  UNL1        0.4200
     29 F          61.2622   89.8539    9.0381 F       1  UNL1       -0.1658
     30 F          63.1123   89.0600    9.7067 F       1  UNL1       -0.1658
     31 F          61.1385   91.0419   10.7912 F       1  UNL1       -0.1658
@<TRIPOS>BOND
     1    10    11    2
     2    11    12   ar
     3    12    13   ar
     4    13    14   ar
     5    14     1    1
     6     1     2   ar
     7     2     3   ar
     8     3    28    1
     9    28    29    1
    10    28    30    1
    11    28    31    1
    12     3     4   ar
    13     4     5   ar
    14     5     6   ar
    15    20     6    1
    16    20    21    1
    17    21    22    1
    18    22    23    1
    19    23    24    1
    20    24    25    1
    21    25    26    1
    22     6     7   ar
    23     7     8   ar
    24     8     9   ar
    25    14    15   ar
    26    15    16   ar
    27    16    17    1
    28    17    18    1
    29    18    19    1
    30    16    11   ar
    31     9     1   ar
    32    19    15    1
    33     8     4   ar
    34    25    20    1
    35    23    27    1
@<TRIPOS>MOLECULE
*****
 31 35 0 0 0
SMALL
GASTEIGER

@<TRIPOS>ATOM
      1 C          63.8970   89.2438   12.9926 C.ar    1  UNL1        0.0012
      2 C          62.8445   89.2973   11.9252 C.ar    1  UNL1        0.0055
      3 C          62.1526   88.0396   11.4904 C.ar    1  UNL1        0.0907
      4 C          62.5131   86.7281   12.1230 C.ar    1  UNL1        0.1063
      5 N          62.0060   85.3340   11.9017 N.ar    1  UNL1       -0.1693
      6 N          62.7450   84.4187   12.8324 N.ar    1  UNL1       -0.2486
      7 C          63.7089   85.2473   13.6289 C.ar    1  UNL1        0.0966
      8 C          63.5656   86.6745   13.1904 C.ar    1  UNL1        0.0380
      9 C          64.2576   87.9324   13.6253 C.ar    1  UNL1        0.0031
     10 O          66.6647   94.2752   14.7319 O.2     1  UNL1       -0.2670
     11 C          65.9728   93.0174   14.2970 C.ar    1  UNL1        0.2607
     12 C          65.6661   91.9449   15.3000 C.ar    1  UNL1        0.0608
     13 C          64.9742   90.6871   14.8652 C.ar    1  UNL1        0.0060
     14 C          64.5890   90.5016   13.4274 C.ar    1  UNL1        0.0119
     15 C          64.8956   91.5740   12.4245 C.ar    1  UNL1        0.0398
     16 N          65.5875   92.8319   12.8593 N.ar    1  UNL1       -0.2992
     17 C          65.7582   93.7076   11.6535 C.3     1  UNL1        0.1091
     18 C          65.1718   92.9910   10.4735 C.3     1  UNL1        0.0308
     19 C          64.6387   91.6724   10.9499 C.3     1  UNL1        0.0459
     20 C          62.5537   82.9353   12.9466 C.3     1  UNL1        0.1404
     21 C          61.9165   82.3535   14.1737 C.3     1  UNL1        0.0443
     22 C          61.7252   80.8702   14.2879 C.3     1  UNL1        0.0707
     23 N          62.1711   79.9686   13.1750 N.3     1  UNL1       -0.2951
     24 C          62.8082   80.5504   11.9481 C.3     1  UNL1        0.1063
     25 C          62.9995   82.0337   11.8338 C.3     1  UNL1        0.1988
     26 F          63.6366   82.6156   10.6068 F       1  UNL1       -0.2337
     27 H          61.3464   79.4555   12.8635 H       1  UNL1        0.1233
     28 C          61.1001   88.0931   10.4229 C.3     1  UNL1        0.4200
     29 F          60.0477   88.1466    9.3555 F       1  UNL1       -0.1658
     30 F          62.1656   88.0274    9.3691 F       1  UNL1       -0.1658
     31 F          60.0347   88.1588   11.4767 F       1  UNL1       -0.1658
@<TRIPOS>BOND
     1    10    11    2
     2    11    12   ar
     3    12    13   ar
     4    13    14   ar
     5    14     1    1
     6     1     2   ar
     7     2     3   ar
     8     3    28    1
     9    28    29    1
    10    28    30    1
    11    28    31    1
    12     3     4   ar
    13     4     5   ar
    14     5     6   ar
    15    20     6    1
    16    20    21    1
    17    21    22    1
    18    22    23    1
    19    23    24    1
    20    24    25    1
    21    25    26    1
    22     6     7   ar
    23     7     8   ar
    24     8     9   ar
    25    14    15   ar
    26    15    16   ar
    27    16    17    1
    28    17    18    1
    29    18    19    1
    30    16    11   ar
    31     9     1   ar
    32    19    15    1
    33     8     4   ar
    34    25    20    1
    35    23    27    1
@<TRIPOS>MOLECULE
*****
 31 35 0 0 0
SMALL
GASTEIGER

@<TRIPOS>ATOM
      1 C          63.6659   89.0670   12.6291 C.ar    1  UNL1        0.0012
      2 C          62.6675   89.0404   11.5098 C.ar    1  UNL1        0.0055
      3 C          62.0327   87.7442   11.1018 C.ar    1  UNL1        0.0907
      4 C          62.3961   86.4744   11.8129 C.ar    1  UNL1        0.1063
      5 N          61.9385   85.0573   11.6335 N.ar    1  UNL1       -0.1693
      6 N          62.6540   84.2080   12.6418 N.ar    1  UNL1       -0.2486
      7 C          63.5538   85.1003   13.4444 C.ar    1  UNL1        0.0966
      8 C          63.3944   86.5010   12.9321 C.ar    1  UNL1        0.0380
      9 C          64.0293   87.7973   13.3403 C.ar    1  UNL1        0.0031
     10 O          66.2055   94.2523   14.2613 O.2     1  UNL1       -0.2670
     11 C          65.5705   92.9560   13.8533 C.ar    1  UNL1        0.2607
     12 C          65.6049   92.5232   12.4174 C.ar    1  UNL1        0.0608
     13 C          64.9700   91.2269   12.0094 C.ar    1  UNL1        0.0060
     14 C          64.3008   90.3633   13.0372 C.ar    1  UNL1        0.0119
     15 C          64.2664   90.7961   14.4730 C.ar    1  UNL1        0.0398
     16 N          64.9013   92.0924   14.8811 N.ar    1  UNL1       -0.2992
     17 C          64.7112   92.2564   16.3599 C.3     1  UNL1        0.1091
     18 C          63.9588   91.0614   16.8658 C.3     1  UNL1        0.0308
     19 C          63.6839   90.1589   15.6996 C.3     1  UNL1        0.0459
     20 C          62.4973   82.7264   12.8168 C.3     1  UNL1        0.1404
     21 C          61.8549   82.1816   14.0580 C.3     1  UNL1        0.0443
     22 C          61.6982   80.7002   14.2330 C.3     1  UNL1        0.0707
     23 N          62.1838   79.7635   13.1667 N.3     1  UNL1       -0.2951
     24 C          62.8261   80.3083   11.9256 C.3     1  UNL1        0.1063
     25 C          62.9829   81.7898   11.7506 C.3     1  UNL1        0.1988
     26 F          63.6252   82.3347   10.5094 F       1  UNL1       -0.2337
     27 H          61.3771   79.2170   12.8652 H       1  UNL1        0.1233
     28 C          61.0344   87.7176    9.9826 C.3     1  UNL1        0.4200
     29 F          60.0361   87.6910    8.8634 F       1  UNL1       -0.1658
     30 F          59.9220   87.9108   10.9701 F       1  UNL1       -0.1658
     31 F          62.1467   87.5244    8.9950 F       1  UNL1       -0.1658
@<TRIPOS>BOND
     1    10    11    2
     2    11    12   ar
     3    12    13   ar
     4    13    14   ar
     5    14     1    1
     6     1     2   ar
     7     2     3   ar
     8     3    28    1
     9    28    29    1
    10    28    30    1
    11    28    31    1
    12     3     4   ar
    13     4     5   ar
    14     5     6   ar
    15    20     6    1
    16    20    21    1
    17    21    22    1
    18    22    23    1
    19    23    24    1
    20    24    25    1
    21    25    26    1
    22     6     7   ar
    23     7     8   ar
    24     8     9   ar
    25    14    15   ar
    26    15    16   ar
    27    16    17    1
    28    17    18    1
    29    18    19    1
    30    16    11   ar
    31     9     1   ar
    32    19    15    1
    33     8     4   ar
    34    25    20    1
    35    23    27    1
@<TRIPOS>MOLECULE
*****
 31 35 0 0 0
SMALL
GASTEIGER

@<TRIPOS>ATOM
      1 C          62.0058   86.7000   10.4933 C.ar    1  UNL1        0.0012
      2 C          61.9901   85.6467    9.4253 C.ar    1  UNL1        0.0055
      3 C          61.3480   85.9319    8.1001 C.ar    1  UNL1        0.0907
      4 C          60.7215   87.2704    7.8427 C.ar    1  UNL1        0.1063
      5 N          60.0201   87.8364    6.6438 N.ar    1  UNL1       -0.1693
      6 N          59.6023   89.2394    6.9707 N.ar    1  UNL1       -0.2486
      7 C          60.0455   89.5405    8.3718 C.ar    1  UNL1        0.0966
      8 C          60.7372   88.3235    8.9107 C.ar    1  UNL1        0.0380
      9 C          61.3794   88.0384   10.2360 C.ar    1  UNL1        0.0031
     10 O          64.5745   85.5589   15.7943 O.2     1  UNL1       -0.2670
     11 C          63.9323   85.8442   14.4690 C.ar    1  UNL1        0.2607
     12 C          63.3554   84.7219   13.6580 C.ar    1  UNL1        0.0608
     13 C          62.7133   85.0072   12.3329 C.ar    1  UNL1        0.0060
     14 C          62.6480   86.4147   11.8185 C.ar    1  UNL1        0.0119
     15 C          63.2249   87.5370   12.6295 C.ar    1  UNL1        0.0398
     16 N          63.8670   87.2518   13.9547 N.ar    1  UNL1       -0.2992
     17 C          64.3464   88.5527   14.5272 C.3     1  UNL1        0.1091
     18 C          64.0005   89.6420   13.5557 C.3     1  UNL1        0.0308
     19 C          63.3074   89.0143   12.3828 C.3     1  UNL1        0.0459
     20 C          58.8699   90.1769    6.0570 C.3     1  UNL1        0.1404
     21 C          57.3700   90.1829    6.0342 C.3     1  UNL1        0.0443
     22 C          56.6376   91.1203    5.1206 C.3     1  UNL1        0.0707
     23 N          57.4051   92.0517    4.2297 N.3     1  UNL1       -0.2951
     24 C          58.9048   92.0456    4.2525 C.3     1  UNL1        0.1063
     25 C          59.6373   91.1082    5.1661 C.3     1  UNL1        0.1988
     26 F          61.1371   91.1021    5.1890 F       1  UNL1       -0.2337
     27 H          57.1108   92.9983    4.4700 H       1  UNL1        0.1233
     28 C          61.3323   84.8787    7.0321 C.3     1  UNL1        0.4200
     29 F          61.3165   83.8256    5.9642 F       1  UNL1       -0.1658
     30 F          62.8316   84.8380    7.0502 F       1  UNL1       -0.1658
     31 F          59.8329   84.9194    7.0141 F       1  UNL1       -0.1658
@<TRIPOS>BOND
     1    10    11    2
     2    11    12   ar
     3    12    13   ar
     4    13    14   ar
     5    14     1    1
     6     1     2   ar
     7     2     3   ar
     8     3    28    1
     9    28    29    1
    10    28    30    1
    11    28    31    1
    12     3     4   ar
    13     4     5   ar
    14     5     6   ar
    15    20     6    1
    16    20    21    1
    17    21    22    1
    18    22    23    1
    19    23    24    1
    20    24    25    1
    21    25    26    1
    22     6     7   ar
    23     7     8   ar
    24     8     9   ar
    25    14    15   ar
    26    15    16   ar
    27    16    17    1
    28    17    18    1
    29    18    19    1
    30    16    11   ar
    31     9     1   ar
    32    19    15    1
    33     8     4   ar
    34    25    20    1
    35    23    27    1
@<TRIPOS>MOLECULE
*****
 31 35 0 0 0
SMALL
GASTEIGER

@<TRIPOS>ATOM
      1 C          63.8920   90.4829   11.7186 C.ar    1  UNL1        0.0012
      2 C          62.7880   90.2604   10.7277 C.ar    1  UNL1        0.0055
      3 C          62.0734   88.9424   10.6845 C.ar    1  UNL1        0.0907
      4 C          62.4627   87.8467   11.6322 C.ar    1  UNL1        0.1063
      5 N          61.9429   86.4526   11.8226 N.ar    1  UNL1       -0.1693
      6 N          62.7256   85.8135   12.9312 N.ar    1  UNL1       -0.2486
      7 C          63.7291   86.8126   13.4259 C.ar    1  UNL1        0.0966
      8 C          63.5666   88.0692   12.6230 C.ar    1  UNL1        0.0380
      9 C          64.2813   89.3873   12.6663 C.ar    1  UNL1        0.0031
     10 O          66.7506   95.7554   11.8913 O.2     1  UNL1       -0.2670
     11 C          66.0359   94.4373   11.8482 C.ar    1  UNL1        0.2607
     12 C          65.3326   94.0060   10.5954 C.ar    1  UNL1        0.0608
     13 C          64.6180   92.6880   10.5522 C.ar    1  UNL1        0.0060
     14 C          64.6067   91.8010   11.7618 C.ar    1  UNL1        0.0119
     15 C          65.3100   92.2322   13.0146 C.ar    1  UNL1        0.0398
     16 N          66.0246   93.5503   13.0578 N.ar    1  UNL1       -0.2992
     17 C          66.6254   93.7074   14.4232 C.3     1  UNL1        0.1091
     18 C          66.2821   92.4863   15.2239 C.3     1  UNL1        0.0308
     19 C          65.4691   91.5746   14.3533 C.3     1  UNL1        0.0459
     20 C          62.5377   84.4199   13.4534 C.3     1  UNL1        0.1404
     21 C          62.3188   84.1915   14.9197 C.3     1  UNL1        0.0443
     22 C          62.1310   82.7980   15.4419 C.3     1  UNL1        0.0707
     23 N          62.1620   81.6328   14.4977 N.3     1  UNL1       -0.2951
     24 C          62.3809   81.8611   13.0315 C.3     1  UNL1        0.1063
     25 C          62.5688   83.2546   12.5093 C.3     1  UNL1        0.1988
     26 F          62.7877   83.4831   11.0430 F       1  UNL1       -0.2337
     27 H          61.2659   81.1545   14.5907 H       1  UNL1        0.1233
     28 C          60.9695   88.7198    9.6936 C.3     1  UNL1        0.4200
     29 F          59.8656   88.4973    8.7028 F       1  UNL1       -0.1658
     30 F          61.8134   87.7048    8.9813 F       1  UNL1       -0.1658
     31 F          60.1256   89.7349   10.4059 F       1  UNL1       -0.1658
@<TRIPOS>BOND
     1    10    11    2
     2    11    12   ar
     3    12    13   ar
     4    13    14   ar
     5    14     1    1
     6     1     2   ar
     7     2     3   ar
     8     3    28    1
     9    28    29    1
    10    28    30    1
    11    28    31    1
    12     3     4   ar
    13     4     5   ar
    14     5     6   ar
    15    20     6    1
    16    20    21    1
    17    21    22    1
    18    22    23    1
    19    23    24    1
    20    24    25    1
    21    25    26    1
    22     6     7   ar
    23     7     8   ar
    24     8     9   ar
    25    14    15   ar
    26    15    16   ar
    27    16    17    1
    28    17    18    1
    29    18    19    1
    30    16    11   ar
    31     9     1   ar
    32    19    15    1
    33     8     4   ar
    34    25    20    1
    35    23    27    1
@<TRIPOS>MOLECULE
*****
 31 35 0 0 0
SMALL
GASTEIGER

@<TRIPOS>ATOM
      1 C          63.6175   88.7582   13.5137 C.ar    1  UNL1        0.0012
      2 C          62.8656   88.9994   12.2383 C.ar    1  UNL1        0.0055
      3 C          62.4241   87.8388   11.3970 C.ar    1  UNL1        0.0907
      4 C          62.7345   86.4368   11.8309 C.ar    1  UNL1        0.1063
      5 N          62.4301   85.1044   11.2132 N.ar    1  UNL1       -0.1693
      6 N          62.9939   84.0396   12.1067 N.ar    1  UNL1       -0.2486
      7 C          63.6467   84.7140   13.2767 C.ar    1  UNL1        0.0966
      8 C          63.4863   86.1956   13.1063 C.ar    1  UNL1        0.0380
      9 C          63.9279   87.3563   13.9477 C.ar    1  UNL1        0.0031
     10 O          65.3834   93.4010   16.8793 O.2     1  UNL1       -0.2670
     11 C          64.9419   92.2403   16.0378 C.ar    1  UNL1        0.2607
     12 C          64.0885   91.1616   16.6364 C.ar    1  UNL1        0.0608
     13 C          63.6470   90.0010   15.7951 C.ar    1  UNL1        0.0060
     14 C          64.0590   89.9189   14.3551 C.ar    1  UNL1        0.0119
     15 C          64.9124   90.9975   13.7565 C.ar    1  UNL1        0.0398
     16 N          65.3539   92.1582   14.5978 N.ar    1  UNL1       -0.2992
     17 C          66.1851   93.0640   13.7385 C.3     1  UNL1        0.1091
     18 C          66.2573   92.4632   12.3660 C.3     1  UNL1        0.0308
     19 C          65.4708   91.1860   12.3771 C.3     1  UNL1        0.0459
     20 C          62.9182   82.5600   11.8715 C.3     1  UNL1        0.1404
     21 C          63.3175   81.9905   10.5425 C.3     1  UNL1        0.0443
     22 C          63.2418   80.5110   10.3072 C.3     1  UNL1        0.0707
     23 N          62.7668   79.6010   11.4011 N.3     1  UNL1       -0.2951
     24 C          62.3675   80.1705   12.7300 C.3     1  UNL1        0.1063
     25 C          62.4432   81.6500   12.9652 C.3     1  UNL1        0.1988
     26 F          62.0440   82.2197   14.2942 F       1  UNL1       -0.2337
     27 H          63.5202   78.9370   11.5797 H       1  UNL1        0.1233
     28 C          61.6723   88.0800   10.1216 C.3     1  UNL1        0.4200
     29 F          60.9204   88.3212    8.8463 F       1  UNL1       -0.1658
     30 F          60.4907   88.5627   10.9095 F       1  UNL1       -0.1658
     31 F          62.8539   87.5973    9.3338 F       1  UNL1       -0.1658
@<TRIPOS>BOND
     1    10    11    2
     2    11    12   ar
     3    12    13   ar
     4    13    14   ar
     5    14     1    1
     6     1     2   ar
     7     2     3   ar
     8     3    28    1
     9    28    29    1
    10    28    30    1
    11    28    31    1
    12     3     4   ar
    13     4     5   ar
    14     5     6   ar
    15    20     6    1
    16    20    21    1
    17    21    22    1
    18    22    23    1
    19    23    24    1
    20    24    25    1
    21    25    26    1
    22     6     7   ar
    23     7     8   ar
    24     8     9   ar
    25    14    15   ar
    26    15    16   ar
    27    16    17    1
    28    17    18    1
    29    18    19    1
    30    16    11   ar
    31     9     1   ar
    32    19    15    1
    33     8     4   ar
    34    25    20    1
    35    23    27    1
@<TRIPOS>MOLECULE
*****
 31 35 0 0 0
SMALL
GASTEIGER

@<TRIPOS>ATOM
      1 C          64.8168   90.2403   14.8696 C.ar    1  UNL1        0.0012
      2 C          66.0595   90.8047   15.4920 C.ar    1  UNL1        0.0055
      3 C          66.8194   91.8938   14.7948 C.ar    1  UNL1        0.0907
      4 C          66.3366   92.4188   13.4751 C.ar    1  UNL1        0.1063
      5 N          66.8728   93.4794   12.5600 N.ar    1  UNL1       -0.1693
      6 N          65.9615   93.5706   11.3721 N.ar    1  UNL1       -0.2486
      7 C          64.8622   92.5663   11.5530 C.ar    1  UNL1        0.0966
      8 C          65.0940   91.8544   12.8527 C.ar    1  UNL1        0.0380
      9 C          64.3341   90.7651   13.5499 C.ar    1  UNL1        0.0031
     10 O          61.7773   85.8833   17.6587 O.2     1  UNL1       -0.2670
     11 C          62.5373   86.9725   16.9614 C.ar    1  UNL1        0.2607
     12 C          62.2890   88.4079   17.3194 C.ar    1  UNL1        0.0608
     13 C          63.0488   89.4971   16.6222 C.ar    1  UNL1        0.0060
     14 C          64.0570   89.1510   15.5668 C.ar    1  UNL1        0.0119
     15 C          64.3053   87.7157   15.2088 C.ar    1  UNL1        0.0398
     16 N          63.5455   86.6265   15.9060 N.ar    1  UNL1       -0.2992
     17 C          64.0006   85.3117   15.3455 C.3     1  UNL1        0.1091
     18 C          65.0418   85.5884   14.3017 C.3     1  UNL1        0.0308
     19 C          65.2301   87.0741   14.2172 C.3     1  UNL1        0.0459
     20 C          66.1215   94.5026   10.2075 C.3     1  UNL1        0.1404
     21 C          65.3611   95.7950   10.1713 C.3     1  UNL1        0.0443
     22 C          65.5211   96.7269    9.0069 C.3     1  UNL1        0.0707
     23 N          66.4415   96.3663    7.8786 N.3     1  UNL1       -0.2951
     24 C          67.2019   95.0739    7.9149 C.3     1  UNL1        0.1063
     25 C          67.0419   94.1420    9.0793 C.3     1  UNL1        0.1988
     26 F          67.8022   92.8494    9.1156 F       1  UNL1       -0.2337
     27 H          67.1332   97.1131    7.8127 H       1  UNL1        0.1233
     28 C          68.0620   92.4582   15.4171 C.3     1  UNL1        0.4200
     29 F          69.3046   93.0226   16.0395 F       1  UNL1       -0.1658
     30 F          68.8735   91.9396   14.2672 F       1  UNL1       -0.1658
     31 F          67.2505   92.9768   16.5671 F       1  UNL1       -0.1658
@<TRIPOS>BOND
     1    10    11    2
     2    11    12   ar
     3    12    13   ar
     4    13    14   ar
     5    14     1    1
     6     1     2   ar
     7     2     3   ar
     8     3    28    1
     9    28    29    1
    10    28    30    1
    11    28    31    1
    12     3     4   ar
    13     4     5   ar
    14     5     6   ar
    15    20     6    1
    16    20    21    1
    17    21    22    1
    18    22    23    1
    19    23    24    1
    20    24    25    1
    21    25    26    1
    22     6     7   ar
    23     7     8   ar
    24     8     9   ar
    25    14    15   ar
    26    15    16   ar
    27    16    17    1
    28    17    18    1
    29    18    19    1
    30    16    11   ar
    31     9     1   ar
    32    19    15    1
    33     8     4   ar
    34    25    20    1
    35    23    27    1
