@<TRIPOS>MOLECULE
*****
 29 32 0 0 0
SMALL
GASTEIGER

@<TRIPOS>ATOM
      1 C          59.5865   88.2441    7.8046 C.ar    1  UNL1        0.1388
      2 C          59.6678   86.7529    7.9445 C.ar    1  UNL1        0.0384
      3 C          60.5255   86.1457    9.0149 C.ar    1  UNL1        0.0221
      4 C          61.3018   87.0296    9.9453 C.ar    1  UNL1        0.0825
      5 C          61.2206   88.5208    9.8054 C.ar    1  UNL1        0.0194
      6 C          60.3629   89.1281    8.7350 C.ar    1  UNL1        0.0382
      7 C          62.0927   89.1337   10.8608 C.ar    1  UNL1        0.0144
      8 C          62.7130   88.0212   11.6530 C.ar    1  UNL1        0.0970
      9 N          62.2242   86.7208   11.0872 N.ar    1  UNL1       -0.2080
     10 S          62.5930   85.3519   11.5772 S.O2    1  UNL1        0.0864
     11 O          63.3580   85.1047   10.3108 O.2     1  UNL1       -0.1476
     12 O          61.8281   85.5992   12.8435 O.2     1  UNL1       -0.1476
     13 C          62.9618   83.9830   12.0673 C.ar    1  UNL1        0.1338
     14 C          62.4828   82.7680   11.3297 C.ar    1  UNL1        0.0209
     15 C          62.8516   81.3991   11.8198 C.ar    1  UNL1        0.0014
     16 C          63.6994   81.2453   13.0475 C.ar    1  UNL1        0.0006
     17 C          64.1785   82.4604   13.7852 C.ar    1  UNL1        0.0081
     18 C          63.8097   83.8292   13.2950 C.ar    1  UNL1        0.0536
     19 BR         64.2888   85.0443   14.0328 Br      1  UNL1       -0.0476
     20 C          59.2278   90.0300    5.9520 C.3     1  UNL1        0.2525
     21 O          58.7288   88.8513    6.7342 O.3     1  UNL1       -0.4714
     22 C          62.3070   90.6013   11.0847 C.3     1  UNL1        0.1008
     23 N          63.5381   91.0797   11.7956 N.3     1  UNL1       -0.2665
     24 C          63.7611   90.7195   13.2345 C.3     1  UNL1        0.0899
     25 C          64.9922   91.1978   13.9454 C.3     1  UNL1        0.0897
     26 N          66.0005   92.0365   13.2173 N.3     1  UNL1       -0.2691
     27 C          67.2317   92.5149   13.9282 C.3     1  UNL1        0.0897
     28 C          65.7775   92.3967   11.7784 C.3     1  UNL1        0.0897
     29 C          64.5464   91.9184   11.0675 C.3     1  UNL1        0.0899
@<TRIPOS>BOND
     1    20    21    1
     2    21     1    1
     3     1     2   ar
     4     2     3   ar
     5     3     4   ar
     6     4     5   ar
     7     5     6   ar
     8     5     7   ar
     9     7    22    1
    10    22    23    1
    11    23    24    1
    12    24    25    1
    13    25    26    1
    14    26    27    1
    15    26    28    1
    16    28    29    1
    17     7     8   ar
    18     8     9   ar
    19     9    10    1
    20    10    11    2
    21    10    12    2
    22    10    13    1
    23    13    14   ar
    24    14    15   ar
    25    15    16   ar
    26    16    17   ar
    27    17    18   ar
    28    18    19    1
    29     6     1   ar
    30    29    23    1
    31    18    13   ar
    32     9     4   ar
@<TRIPOS>MOLECULE
*****
 29 32 0 0 0
SMALL
GASTEIGER

@<TRIPOS>ATOM
      1 C          61.4358   89.0725   11.2456 C.ar    1  UNL1        0.1388
      2 C          61.8829   89.9383   10.1053 C.ar    1  UNL1        0.0384
      3 C          62.9692   90.9515   10.3138 C.ar    1  UNL1        0.0221
      4 C          63.6084   91.0988   11.6628 C.ar    1  UNL1        0.0825
      5 C          63.1614   90.2330   12.8031 C.ar    1  UNL1        0.0194
      6 C          62.0751   89.2198   12.5945 C.ar    1  UNL1        0.0382
      7 C          63.9707   90.6026   14.0108 C.ar    1  UNL1        0.0144
      8 C          64.9179   91.6969   13.6168 C.ar    1  UNL1        0.0970
      9 N          64.6940   92.0035   12.1656 N.ar    1  UNL1       -0.2080
     10 S          65.4270   93.0341   11.3589 S.O2    1  UNL1        0.0864
     11 O          64.6368   92.6455   10.1446 O.2     1  UNL1       -0.1476
     12 O          66.2172   93.4226   12.5733 O.2     1  UNL1       -0.1476
     13 C          66.1601   94.0646   10.5523 C.ar    1  UNL1        0.1338
     14 C          65.6650   95.4800   10.5159 C.ar    1  UNL1        0.0209
     15 C          66.3981   96.5106    9.7093 C.ar    1  UNL1        0.0014
     16 C          67.6262   96.1256    8.9390 C.ar    1  UNL1        0.0006
     17 C          68.1213   94.7101    8.9753 C.ar    1  UNL1        0.0081
     18 C          67.3882   93.6796    9.7820 C.ar    1  UNL1        0.0536
     19 BR         67.8834   92.2641    9.8183 Br      1  UNL1       -0.0476
     20 C          60.1399   87.4528    9.6812 C.3     1  UNL1        0.2525
     21 O          60.3495   88.0593   11.0370 O.3     1  UNL1       -0.4714
     22 C          63.8534   89.9861   15.3732 C.3     1  UNL1        0.1008
     23 N          63.7591   88.4960   15.5165 N.3     1  UNL1       -0.2665
     24 C          64.3653   87.6025   14.4753 C.3     1  UNL1        0.0899
     25 C          64.2710   86.1123   14.6187 C.3     1  UNL1        0.0897
     26 N          63.5706   85.5156   15.8033 N.3     1  UNL1       -0.2691
     27 C          63.4763   84.0254   15.9466 C.3     1  UNL1        0.0897
     28 C          62.9643   86.4092   16.8445 C.3     1  UNL1        0.0897
     29 C          63.0586   87.8993   16.7012 C.3     1  UNL1        0.0899
@<TRIPOS>BOND
     1    20    21    1
     2    21     1    1
     3     1     2   ar
     4     2     3   ar
     5     3     4   ar
     6     4     5   ar
     7     5     6   ar
     8     5     7   ar
     9     7    22    1
    10    22    23    1
    11    23    24    1
    12    24    25    1
    13    25    26    1
    14    26    27    1
    15    26    28    1
    16    28    29    1
    17     7     8   ar
    18     8     9   ar
    19     9    10    1
    20    10    11    2
    21    10    12    2
    22    10    13    1
    23    13    14   ar
    24    14    15   ar
    25    15    16   ar
    26    16    17   ar
    27    17    18   ar
    28    18    19    1
    29     6     1   ar
    30    29    23    1
    31    18    13   ar
    32     9     4   ar
@<TRIPOS>MOLECULE
*****
 29 32 0 0 0
SMALL
GASTEIGER

@<TRIPOS>ATOM
      1 C          59.8159   88.8762    8.5311 C.ar    1  UNL1        0.1388
      2 C          59.6492   87.4007    8.7432 C.ar    1  UNL1        0.0384
      3 C          60.5069   86.6852    9.7445 C.ar    1  UNL1        0.0221
      4 C          61.5314   87.4453   10.5335 C.ar    1  UNL1        0.0825
      5 C          61.6981   88.9208   10.3214 C.ar    1  UNL1        0.0194
      6 C          60.8403   89.6363    9.3202 C.ar    1  UNL1        0.0382
      7 C          62.7831   89.4014   11.2389 C.ar    1  UNL1        0.0144
      8 C          63.2870   88.2229   12.0181 C.ar    1  UNL1        0.0970
      9 N          62.5134   87.0140   11.5821 N.ar    1  UNL1       -0.2080
     10 S          62.6906   85.6186   12.1033 S.O2    1  UNL1        0.0864
     11 O          63.4624   86.1535   13.2730 O.2     1  UNL1       -0.1476
     12 O          61.9188   85.0837   10.9336 O.2     1  UNL1       -0.1476
     13 C          62.8678   84.2232   12.6244 C.ar    1  UNL1        0.1338
     14 C          62.3269   83.8520   13.9732 C.ar    1  UNL1        0.0209
     15 C          62.5041   82.4565   14.4943 C.ar    1  UNL1        0.0014
     16 C          63.2223   81.4325   13.6664 C.ar    1  UNL1        0.0006
     17 C          63.7634   81.8038   12.3176 C.ar    1  UNL1        0.0081
     18 C          63.5861   83.1991   11.7965 C.ar    1  UNL1        0.0536
     19 BR         64.1272   83.5703   10.4476 Br      1  UNL1       -0.0476
     20 C          59.1562   89.3487    6.0630 C.3     1  UNL1        0.2525
     21 O          58.9581   89.5916    7.5299 O.3     1  UNL1       -0.4714
     22 C          63.2775   90.8127   11.3566 C.3     1  UNL1        0.1008
     23 N          64.0425   91.2404   12.5739 N.3     1  UNL1       -0.2665
     24 C          63.6967   90.6680   13.9165 C.3     1  UNL1        0.0899
     25 C          64.4617   91.0957   15.1338 C.3     1  UNL1        0.0897
     26 N          65.5726   92.0958   15.0085 N.3     1  UNL1       -0.2691
     27 C          66.3376   92.5235   16.2258 C.3     1  UNL1        0.0897
     28 C          65.9184   92.6683   13.6658 C.3     1  UNL1        0.0897
     29 C          65.1534   92.2406   12.4485 C.3     1  UNL1        0.0899
@<TRIPOS>BOND
     1    20    21    1
     2    21     1    1
     3     1     2   ar
     4     2     3   ar
     5     3     4   ar
     6     4     5   ar
     7     5     6   ar
     8     5     7   ar
     9     7    22    1
    10    22    23    1
    11    23    24    1
    12    24    25    1
    13    25    26    1
    14    26    27    1
    15    26    28    1
    16    28    29    1
    17     7     8   ar
    18     8     9   ar
    19     9    10    1
    20    10    11    2
    21    10    12    2
    22    10    13    1
    23    13    14   ar
    24    14    15   ar
    25    15    16   ar
    26    16    17   ar
    27    17    18   ar
    28    18    19    1
    29     6     1   ar
    30    29    23    1
    31    18    13   ar
    32     9     4   ar
@<TRIPOS>MOLECULE
*****
 29 32 0 0 0
SMALL
GASTEIGER

@<TRIPOS>ATOM
      1 C          64.7322   90.5161   14.3353 C.ar    1  UNL1        0.1388
      2 C          63.9991   91.2029   13.2214 C.ar    1  UNL1        0.0384
      3 C          63.1925   90.3980   12.2460 C.ar    1  UNL1        0.0221
      4 C          63.1189   88.9062   12.3845 C.ar    1  UNL1        0.0825
      5 C          63.8520   88.2194   13.4984 C.ar    1  UNL1        0.0194
      6 C          64.6586   89.0244   14.4738 C.ar    1  UNL1        0.0382
      7 C          63.5952   86.7460   13.3831 C.ar    1  UNL1        0.0144
      8 C          62.7035   86.5223   12.1980 C.ar    1  UNL1        0.0970
      9 N          62.4091   87.8574   11.5808 N.ar    1  UNL1       -0.2080
     10 S          61.5548   88.1008   10.3721 S.O2    1  UNL1        0.0864
     11 O          62.7873   88.2245    9.5260 O.2     1  UNL1       -0.1476
     12 O          60.3224   87.9772   11.2181 O.2     1  UNL1       -0.1476
     13 C          60.7005   88.3443    9.1633 C.ar    1  UNL1        0.1338
     14 C          60.2480   89.7356    8.8327 C.ar    1  UNL1        0.0209
     15 C          59.3937   89.9790    7.6239 C.ar    1  UNL1        0.0014
     16 C          58.9919   88.8311    6.7460 C.ar    1  UNL1        0.0006
     17 C          59.4445   87.4398    7.0767 C.ar    1  UNL1        0.0081
     18 C          60.2988   87.1964    8.2854 C.ar    1  UNL1        0.0536
     19 BR         60.7513   85.8050    8.6161 Br      1  UNL1       -0.0476
     20 C          66.1323   92.6330   14.8906 C.3     1  UNL1        0.2525
     21 O          65.5388   91.3211   15.3107 O.3     1  UNL1       -0.4714
     22 C          64.1354   85.6831   14.2933 C.3     1  UNL1        0.1008
     23 N          63.7233   84.2533   14.1040 N.3     1  UNL1       -0.2665
     24 C          64.5084   83.3613   13.1887 C.3     1  UNL1        0.0899
     25 C          64.0964   81.9315   12.9994 C.3     1  UNL1        0.0897
     26 N          62.8991   81.3936   13.7255 N.3     1  UNL1       -0.2691
     27 C          62.4870   79.9638   13.5362 C.3     1  UNL1        0.0897
     28 C          62.1139   82.2856   14.6409 C.3     1  UNL1        0.0897
     29 C          62.5260   83.7154   14.8302 C.3     1  UNL1        0.0899
@<TRIPOS>BOND
     1    20    21    1
     2    21     1    1
     3     1     2   ar
     4     2     3   ar
     5     3     4   ar
     6     4     5   ar
     7     5     6   ar
     8     5     7   ar
     9     7    22    1
    10    22    23    1
    11    23    24    1
    12    24    25    1
    13    25    26    1
    14    26    27    1
    15    26    28    1
    16    28    29    1
    17     7     8   ar
    18     8     9   ar
    19     9    10    1
    20    10    11    2
    21    10    12    2
    22    10    13    1
    23    13    14   ar
    24    14    15   ar
    25    15    16   ar
    26    16    17   ar
    27    17    18   ar
    28    18    19    1
    29     6     1   ar
    30    29    23    1
    31    18    13   ar
    32     9     4   ar
@<TRIPOS>MOLECULE
*****
 29 32 0 0 0
SMALL
GASTEIGER

@<TRIPOS>ATOM
      1 C          63.4497   83.1686   13.9937 C.ar    1  UNL1        0.1388
      2 C          64.0899   84.0654   15.0114 C.ar    1  UNL1        0.0384
      3 C          64.1231   85.5484   14.7891 C.ar    1  UNL1        0.0221
      4 C          63.5160   86.1347   13.5490 C.ar    1  UNL1        0.0825
      5 C          62.8758   85.2379   12.5313 C.ar    1  UNL1        0.0194
      6 C          62.8426   83.7548   12.7536 C.ar    1  UNL1        0.0382
      7 C          62.3628   86.0970   11.4137 C.ar    1  UNL1        0.0144
      8 C          62.6860   87.5248   11.7408 C.ar    1  UNL1        0.0970
      9 N          63.3988   87.5480   13.0605 N.ar    1  UNL1       -0.2080
     10 S          63.9053   88.7701   13.7675 S.O2    1  UNL1        0.0864
     11 O          62.9519   89.6202   12.9812 O.2     1  UNL1       -0.1476
     12 O          64.8587   87.9200   14.5539 O.2     1  UNL1       -0.1476
     13 C          64.4119   89.9922   14.4746 C.ar    1  UNL1        0.1338
     14 C          65.4284   90.8745   13.8127 C.ar    1  UNL1        0.0209
     15 C          65.9350   92.0966   14.5198 C.ar    1  UNL1        0.0014
     16 C          65.4249   92.4363   15.8889 C.ar    1  UNL1        0.0006
     17 C          64.4084   91.5540   16.5508 C.ar    1  UNL1        0.0081
     18 C          63.9019   90.3320   15.8437 C.ar    1  UNL1        0.0536
     19 BR         62.8853   89.4498   16.5058 Br      1  UNL1       -0.0476
     20 C          62.1996   80.8967   13.8327 C.3     1  UNL1        0.2525
     21 O          63.4165   81.6855   14.2160 O.3     1  UNL1       -0.4714
     22 C          61.6515   85.6132   10.1849 C.3     1  UNL1        0.1008
     23 N          60.9531   86.5922    9.2883 N.3     1  UNL1       -0.2665
     24 C          61.0698   88.0645    9.5502 C.3     1  UNL1        0.0899
     25 C          60.3714   89.0434    8.6536 C.3     1  UNL1        0.0897
     26 N          59.5563   88.5500    7.4950 N.3     1  UNL1       -0.2691
     27 C          58.8579   89.5290    6.5984 C.3     1  UNL1        0.0897
     28 C          59.4396   87.0776    7.2332 C.3     1  UNL1        0.0897
     29 C          60.1380   86.0987    8.1298 C.3     1  UNL1        0.0899
@<TRIPOS>BOND
     1    20    21    1
     2    21     1    1
     3     1     2   ar
     4     2     3   ar
     5     3     4   ar
     6     4     5   ar
     7     5     6   ar
     8     5     7   ar
     9     7    22    1
    10    22    23    1
    11    23    24    1
    12    24    25    1
    13    25    26    1
    14    26    27    1
    15    26    28    1
    16    28    29    1
    17     7     8   ar
    18     8     9   ar
    19     9    10    1
    20    10    11    2
    21    10    12    2
    22    10    13    1
    23    13    14   ar
    24    14    15   ar
    25    15    16   ar
    26    16    17   ar
    27    17    18   ar
    28    18    19    1
    29     6     1   ar
    30    29    23    1
    31    18    13   ar
    32     9     4   ar
@<TRIPOS>MOLECULE
*****
 29 32 0 0 0
SMALL
GASTEIGER

@<TRIPOS>ATOM
      1 C          63.5984   89.8873   15.6597 C.ar    1  UNL1        0.1388
      2 C          64.5562   91.0376   15.5627 C.ar    1  UNL1        0.0384
      3 C          64.8546   91.6546   14.2284 C.ar    1  UNL1        0.0221
      4 C          64.1952   91.1213   12.9912 C.ar    1  UNL1        0.0825
      5 C          63.2374   89.9710   13.0882 C.ar    1  UNL1        0.0194
      6 C          62.9390   89.3540   14.4225 C.ar    1  UNL1        0.0382
      7 C          62.7431   89.6614   11.7062 C.ar    1  UNL1        0.0144
      8 C          63.3955   90.6204   10.7550 C.ar    1  UNL1        0.0970
      9 N          64.2929   91.5226   11.5492 N.ar    1  UNL1       -0.2080
     10 S          65.1395   92.6315   10.9981 S.O2    1  UNL1        0.0864
     11 O          64.1847   92.7910    9.8523 O.2     1  UNL1       -0.1476
     12 O          66.0942   92.4721   12.1440 O.2     1  UNL1       -0.1476
     13 C          65.9861   93.7405   10.4471 C.ar    1  UNL1        0.1338
     14 C          65.5396   95.1655   10.5873 C.ar    1  UNL1        0.0209
     15 C          66.3862   96.2745   10.0362 C.ar    1  UNL1        0.0014
     16 C          67.6793   95.9582    9.3450 C.ar    1  UNL1        0.0006
     17 C          68.1258   94.5331    9.2049 C.ar    1  UNL1        0.0081
     18 C          67.2792   93.4242    9.7559 C.ar    1  UNL1        0.0536
     19 BR         67.7258   91.9991    9.6157 Br      1  UNL1       -0.0476
     20 C          62.9803   87.8080   17.0895 C.3     1  UNL1        0.2525
     21 O          63.3000   89.2704   16.9940 O.3     1  UNL1       -0.4714
     22 C          61.7678   88.5824   11.3397 C.3     1  UNL1        0.1008
     23 N          62.2593   87.1970   11.0412 N.3     1  UNL1       -0.2665
     24 C          62.6946   86.2982   12.1604 C.3     1  UNL1        0.0899
     25 C          63.1860   84.9128   11.8619 C.3     1  UNL1        0.0897
     26 N          63.2422   84.4262   10.4441 N.3     1  UNL1       -0.2691
     27 C          63.7337   83.0408   10.1456 C.3     1  UNL1        0.0897
     28 C          62.8069   85.3250    9.3249 C.3     1  UNL1        0.0897
     29 C          62.3154   86.7104    9.6234 C.3     1  UNL1        0.0899
@<TRIPOS>BOND
     1    20    21    1
     2    21     1    1
     3     1     2   ar
     4     2     3   ar
     5     3     4   ar
     6     4     5   ar
     7     5     6   ar
     8     5     7   ar
     9     7    22    1
    10    22    23    1
    11    23    24    1
    12    24    25    1
    13    25    26    1
    14    26    27    1
    15    26    28    1
    16    28    29    1
    17     7     8   ar
    18     8     9   ar
    19     9    10    1
    20    10    11    2
    21    10    12    2
    22    10    13    1
    23    13    14   ar
    24    14    15   ar
    25    15    16   ar
    26    16    17   ar
    27    17    18   ar
    28    18    19    1
    29     6     1   ar
    30    29    23    1
    31    18    13   ar
    32     9     4   ar
@<TRIPOS>MOLECULE
*****
 29 32 0 0 0
SMALL
GASTEIGER

@<TRIPOS>ATOM
      1 C          63.6102   82.6179   13.0419 C.ar    1  UNL1        0.1388
      2 C          62.7385   82.6037   11.8213 C.ar    1  UNL1        0.0384
      3 C          62.2509   83.8944   11.2328 C.ar    1  UNL1        0.0221
      4 C          62.6349   85.1993   11.8649 C.ar    1  UNL1        0.0825
      5 C          63.5066   85.2135   13.0855 C.ar    1  UNL1        0.0194
      6 C          63.9943   83.9228   13.6740 C.ar    1  UNL1        0.0382
      7 C          63.7191   86.6432   13.4867 C.ar    1  UNL1        0.0144
      8 C          62.9788   87.5125   12.5140 C.ar    1  UNL1        0.0970
      9 N          62.3087   86.6201   11.5117 N.ar    1  UNL1       -0.2080
     10 S          61.4612   87.0696   10.3586 S.O2    1  UNL1        0.0864
     11 O          62.5730   86.7324    9.4099 O.2     1  UNL1       -0.1476
     12 O          60.3493   87.4069   11.3073 O.2     1  UNL1       -0.1476
     13 C          60.6135   87.5192    9.2055 C.ar    1  UNL1        0.1338
     14 C          59.8890   86.5076    8.3680 C.ar    1  UNL1        0.0209
     15 C          59.0414   86.9571    7.2149 C.ar    1  UNL1        0.0014
     16 C          58.9184   88.4184    6.8995 C.ar    1  UNL1        0.0006
     17 C          59.6430   89.4301    7.7370 C.ar    1  UNL1        0.0081
     18 C          60.4906   88.9805    8.8900 C.ar    1  UNL1        0.0536
     19 BR         61.2151   89.9922    9.7276 Br      1  UNL1       -0.0476
     20 C          63.1440   80.1875   13.8327 C.3     1  UNL1        0.2525
     21 O          64.0979   81.3272   13.6303 O.3     1  UNL1       -0.4714
     22 C          64.5297   87.1199   14.6554 C.3     1  UNL1        0.1008
     23 N          64.3512   88.5167   15.1721 N.3     1  UNL1       -0.2665
     24 C          63.4355   88.7762   16.3315 C.3     1  UNL1        0.0899
     25 C          63.2570   90.1730   16.8482 C.3     1  UNL1        0.0897
     26 N          63.9942   91.3104   16.2056 N.3     1  UNL1       -0.2691
     27 C          63.8157   92.7072   16.7223 C.3     1  UNL1        0.0897
     28 C          64.9100   91.0508   15.0462 C.3     1  UNL1        0.0897
     29 C          65.0885   89.6540   14.5294 C.3     1  UNL1        0.0899
@<TRIPOS>BOND
     1    20    21    1
     2    21     1    1
     3     1     2   ar
     4     2     3   ar
     5     3     4   ar
     6     4     5   ar
     7     5     6   ar
     8     5     7   ar
     9     7    22    1
    10    22    23    1
    11    23    24    1
    12    24    25    1
    13    25    26    1
    14    26    27    1
    15    26    28    1
    16    28    29    1
    17     7     8   ar
    18     8     9   ar
    19     9    10    1
    20    10    11    2
    21    10    12    2
    22    10    13    1
    23    13    14   ar
    24    14    15   ar
    25    15    16   ar
    26    16    17   ar
    27    17    18   ar
    28    18    19    1
    29     6     1   ar
    30    29    23    1
    31    18    13   ar
    32     9     4   ar
@<TRIPOS>MOLECULE
*****
 29 32 0 0 0
SMALL
GASTEIGER

@<TRIPOS>ATOM
      1 C          64.2802   85.6595   14.5773 C.ar    1  UNL1        0.1388
      2 C          63.4127   85.0457   13.5187 C.ar    1  UNL1        0.0384
      3 C          62.7790   85.9136   12.4721 C.ar    1  UNL1        0.0221
      4 C          63.0128   87.3952   12.4843 C.ar    1  UNL1        0.0825
      5 C          63.8803   88.0089   13.5429 C.ar    1  UNL1        0.0194
      6 C          64.5139   87.1410   14.5894 C.ar    1  UNL1        0.0382
      7 C          63.9288   89.4887   13.3021 C.ar    1  UNL1        0.0144
      8 C          63.0913   89.7895   12.0946 C.ar    1  UNL1        0.0970
      9 N          62.5252   88.4957   11.5892 N.ar    1  UNL1       -0.2080
     10 S          61.6288   88.3311   10.3978 S.O2    1  UNL1        0.0864
     11 O          60.4432   88.2026   11.3076 O.2     1  UNL1       -0.1476
     12 O          62.8144   88.4597    9.4880 O.2     1  UNL1       -0.1476
     13 C          60.7324   88.1666    9.2063 C.ar    1  UNL1        0.1338
     14 C          60.0512   89.3622    8.6094 C.ar    1  UNL1        0.0209
     15 C          59.1549   89.1977    7.4179 C.ar    1  UNL1        0.0014
     16 C          58.9398   87.8374    6.8234 C.ar    1  UNL1        0.0006
     17 C          59.6211   86.6418    7.4204 C.ar    1  UNL1        0.0081
     18 C          60.5174   86.8064    8.6118 C.ar    1  UNL1        0.0536
     19 BR         61.1986   85.6106    9.2087 Br      1  UNL1       -0.0476
     20 C          64.6072   83.3239   15.6674 C.3     1  UNL1        0.2525
     21 O          64.9139   84.7916   15.6238 O.3     1  UNL1       -0.4714
     22 C          64.6825   90.4916   14.1245 C.3     1  UNL1        0.1008
     23 N          65.1818   91.7567   13.4920 N.3     1  UNL1       -0.2665
     24 C          65.9868   92.7317   14.2990 C.3     1  UNL1        0.0899
     25 C          66.4861   93.9969   13.6665 C.3     1  UNL1        0.0897
     26 N          66.1804   94.2871   12.2269 N.3     1  UNL1       -0.2691
     27 C          66.6797   95.5522   11.5944 C.3     1  UNL1        0.0897
     28 C          65.3754   93.3120   11.4199 C.3     1  UNL1        0.0897
     29 C          64.8761   92.0468   12.0524 C.3     1  UNL1        0.0899
@<TRIPOS>BOND
     1    20    21    1
     2    21     1    1
     3     1     2   ar
     4     2     3   ar
     5     3     4   ar
     6     4     5   ar
     7     5     6   ar
     8     5     7   ar
     9     7    22    1
    10    22    23    1
    11    23    24    1
    12    24    25    1
    13    25    26    1
    14    26    27    1
    15    26    28    1
    16    28    29    1
    17     7     8   ar
    18     8     9   ar
    19     9    10    1
    20    10    11    2
    21    10    12    2
    22    10    13    1
    23    13    14   ar
    24    14    15   ar
    25    15    16   ar
    26    16    17   ar
    27    17    18   ar
    28    18    19    1
    29     6     1   ar
    30    29    23    1
    31    18    13   ar
    32     9     4   ar
@<TRIPOS>MOLECULE
*****
 29 32 0 0 0
SMALL
GASTEIGER

@<TRIPOS>ATOM
      1 C          61.8872   92.6117    2.2843 C.ar    1  UNL1        0.1388
      2 C          60.3934   92.7471    2.2922 C.ar    1  UNL1        0.0384
      3 C          59.6883   93.3451    1.1110 C.ar    1  UNL1        0.0221
      4 C          60.4770   93.8078   -0.0780 C.ar    1  UNL1        0.0825
      5 C          61.9709   93.6724   -0.0859 C.ar    1  UNL1        0.0194
      6 C          62.6760   93.0744    1.0953 C.ar    1  UNL1        0.0382
      7 C          62.4785   94.2131   -1.3898 C.ar    1  UNL1        0.0144
      8 C          61.2983   94.6825   -2.1878 C.ar    1  UNL1        0.0970
      9 N          60.0614   94.4320   -1.3771 N.ar    1  UNL1       -0.2080
     10 S          58.6556   94.7500   -1.7925 S.O2    1  UNL1        0.0864
     11 O          58.6850   93.6089   -2.7656 O.2     1  UNL1       -0.1476
     12 O          58.6261   95.8911   -0.8194 O.2     1  UNL1       -0.1476
     13 C          57.2497   95.0680   -2.2079 C.ar    1  UNL1        0.1338
     14 C          56.0947   94.4212   -1.5025 C.ar    1  UNL1        0.0209
     15 C          54.6888   94.7392   -1.9179 C.ar    1  UNL1        0.0014
     16 C          54.4381   95.7041   -3.0387 C.ar    1  UNL1        0.0006
     17 C          55.5931   96.3509   -3.7440 C.ar    1  UNL1        0.0081
     18 C          56.9989   96.0329   -3.3286 C.ar    1  UNL1        0.0536
     19 BR         58.1539   96.6798   -4.0340 Br      1  UNL1       -0.0476
     20 C          63.4704   90.8111    3.2849 C.3     1  UNL1        0.2525
     21 O          62.5923   92.0137    3.4655 O.3     1  UNL1       -0.4714
     22 C          63.9142   94.2736   -1.8201 C.3     1  UNL1        0.1008
     23 N          64.2792   94.0186   -3.2525 N.3     1  UNL1       -0.2665
     24 C          64.2297   92.6240   -3.8023 C.3     1  UNL1        0.0899
     25 C          64.5947   92.3690   -5.2347 C.3     1  UNL1        0.0897
     26 N          65.0092   93.5088   -6.1173 N.3     1  UNL1       -0.2691
     27 C          65.3743   93.2539   -7.5497 C.3     1  UNL1        0.0897
     28 C          65.0587   94.9036   -5.5674 C.3     1  UNL1        0.0897
     29 C          64.6937   95.1585   -4.1350 C.3     1  UNL1        0.0899
@<TRIPOS>BOND
     1    20    21    1
     2    21     1    1
     3     1     2   ar
     4     2     3   ar
     5     3     4   ar
     6     4     5   ar
     7     5     6   ar
     8     5     7   ar
     9     7    22    1
    10    22    23    1
    11    23    24    1
    12    24    25    1
    13    25    26    1
    14    26    27    1
    15    26    28    1
    16    28    29    1
    17     7     8   ar
    18     8     9   ar
    19     9    10    1
    20    10    11    2
    21    10    12    2
    22    10    13    1
    23    13    14   ar
    24    14    15   ar
    25    15    16   ar
    26    16    17   ar
    27    17    18   ar
    28    18    19    1
    29     6     1   ar
    30    29    23    1
    31    18    13   ar
    32     9     4   ar
