@<TRIPOS>MOLECULE
*****
 33 37 0 0 0
SMALL
GASTEIGER

@<TRIPOS>ATOM
      1 C          72.2026   76.3174   13.0664 C.ar    1  UNL1        0.1317
      2 C          73.4997   76.5517   12.3505 C.ar    1  UNL1        0.0346
      3 C          73.5543   77.4978   11.1877 C.ar    1  UNL1        0.0121
      4 C          72.3118   78.2095   10.7408 C.ar    1  UNL1        0.1076
      5 C          71.0147   77.9751   11.4568 C.ar    1  UNL1        0.1080
      6 N          70.9601   77.0291   12.6196 N.ar    1  UNL1       -0.2289
      7 C          71.3178   71.7314   18.0766 C.3     1  UNL1        0.0375
      8 C          72.5915   72.3157   18.6118 C.3     1  UNL1        0.1423
      9 O          73.0371   73.3960   17.6712 O.3     1  UNL1       -0.3584
     10 C          72.0388   73.4793   16.5548 C.3     1  UNL1        0.0961
     11 C          73.1691   74.4583   16.4369 C.3     1  UNL1        0.0487
     12 C          73.2237   75.4043   15.2741 C.3     1  UNL1        0.0946
     13 N          72.1479   75.3713   14.2292 N.pl3   1  UNL1       -0.2931
     14 C          71.0176   74.3923   14.3471 C.3     1  UNL1        0.0946
     15 C          70.9630   73.4464   15.5099 C.3     1  UNL1        0.0487
     16 C          70.9762   72.4505   16.8053 C.3     1  UNL1        0.0302
     17 C          70.5251   70.6227   18.7027 C.3     1  UNL1        0.0443
     18 O          71.6034   68.9164   17.0670 O.co2   1  UNL1       -0.5492
     19 C          70.7275   69.2072   18.2494 C.2     1  UNL1        0.0504
     20 O          70.0541   68.0826   18.9785 O.co2   1  UNL1       -0.5492
     21 C          72.3664   79.1555    9.5781 C.2     1  UNL1        0.3767
     22 N          72.9339   78.8546    8.2226 N.2     1  UNL1       -0.0308
     23 C          72.7813   80.0816    7.3734 C.2     1  UNL1        0.2320
     24 C          73.1595   80.3713    5.9511 C.2     1  UNL1        0.0537
     25 C          72.8759   81.7202    5.3594 C.2     1  UNL1        0.0714
     26 C          72.2140   82.7794    6.1901 C.2     1  UNL1       -0.0133
     27 C          71.8358   82.4897    7.6125 C.3     1  UNL1        0.1037
     28 C          72.1195   81.1409    8.2041 C.2     1  UNL1        0.2178
     29 N          71.8630   80.5685    9.5667 N.2     1  UNL1       -0.0347
     30 C          73.2541   82.0099    3.9371 C.3     1  UNL1        0.4184
     31 F          73.6323   82.2996    2.5148 F       1  UNL1       -0.1659
     32 F          73.6061   80.5657    3.7366 F       1  UNL1       -0.1659
     33 F          72.9020   83.4542    4.1376 F       1  UNL1       -0.1659
@<TRIPOS>UNITY_ATOM_ATTR
18 1
charge -1
@<TRIPOS>BOND
     1    18    19   ar
     2    19    20   ar
     3    19    17    1
     4     7    17    1
     5     7     8    1
     6     8     9    1
     7     9    10    1
     8    10    11    1
     9    11    12    1
    10    12    13    1
    11    13     1    1
    12     1     2   ar
    13     2     3   ar
    14     3     4   ar
    15     4    21    1
    16    21    22    2
    17    22    23    1
    18    23    24    2
    19    24    25    1
    20    25    30    1
    21    30    31    1
    22    30    32    1
    23    30    33    1
    24    25    26    2
    25    26    27    1
    26    27    28    1
    27    28    29    2
    28     4     5   ar
    29     5     6   ar
    30    13    14    1
    31    14    15    1
    32    10    16    1
    33    16     7    1
    34    15    10    1
    35     6     1   ar
    36    29    21    1
    37    28    23    1
@<TRIPOS>MOLECULE
*****
 33 37 0 0 0
SMALL
GASTEIGER

@<TRIPOS>ATOM
      1 C          64.3927   89.0933   13.2363 C.ar    1  UNL1        0.1317
      2 C          64.8044   88.2786   14.4265 C.ar    1  UNL1        0.0346
      3 C          64.3613   86.8506   14.5476 C.ar    1  UNL1        0.0121
      4 C          63.5065   86.2374   13.4783 C.ar    1  UNL1        0.1076
      5 C          63.0948   87.0521   12.2880 C.ar    1  UNL1        0.1080
      6 N          63.5379   88.4801   12.1670 N.ar    1  UNL1       -0.2289
      7 C          66.2021   95.5759   11.9646 C.3     1  UNL1        0.0375
      8 C          66.6055   95.5732   13.4094 C.3     1  UNL1        0.1423
      9 O          66.3087   94.2143   13.9710 O.3     1  UNL1       -0.3584
     10 C          65.7219   93.3771   12.8733 C.3     1  UNL1        0.0961
     11 C          65.8497   92.6608   14.1850 C.3     1  UNL1        0.0487
     12 C          65.4066   91.2329   14.3059 C.3     1  UNL1        0.0946
     13 N          64.8358   90.5213   13.1153 N.pl3   1  UNL1       -0.2931
     14 C          64.7080   91.2376   11.8036 C.3     1  UNL1        0.0946
     15 C          65.1511   92.6655   11.6826 C.3     1  UNL1        0.0487
     16 C          65.6561   94.2187   11.6333 C.3     1  UNL1        0.0302
     17 C          66.3235   96.7327   11.0176 C.3     1  UNL1        0.0443
     18 O          67.6532   95.8711    8.9586 O.co2   1  UNL1       -0.5492
     19 C          66.4154   96.4865    9.5408 C.2     1  UNL1        0.0504
     20 O          65.2694   96.8556    8.6461 O.co2   1  UNL1       -0.5492
     21 C          63.0634   84.8094   13.5993 C.2     1  UNL1        0.3767
     22 N          61.6628   84.3400   13.8599 N.2     1  UNL1       -0.0308
     23 C          61.6769   82.8407   13.9026 C.2     1  UNL1        0.2320
     24 C          60.5885   81.8326   14.1245 C.2     1  UNL1        0.0537
     25 C          60.9095   80.3674   14.1122 C.2     1  UNL1        0.0714
     26 C          62.3187   79.9102   13.8780 C.2     1  UNL1       -0.0133
     27 C          63.4071   80.9183   13.6562 C.3     1  UNL1        0.1037
     28 C          63.0863   82.3835   13.6684 C.2     1  UNL1        0.2178
     29 N          63.9432   83.6002   13.4810 N.2     1  UNL1       -0.0347
     30 C          59.8210   79.3593   14.3340 C.3     1  UNL1        0.4184
     31 F          58.7326   78.3513   14.5559 F       1  UNL1       -0.1659
     32 F          58.8305   80.4701   14.5215 F       1  UNL1       -0.1659
     33 F          60.8116   78.2486   14.1466 F       1  UNL1       -0.1659
@<TRIPOS>UNITY_ATOM_ATTR
18 1
charge -1
@<TRIPOS>BOND
     1    18    19   ar
     2    19    20   ar
     3    19    17    1
     4     7    17    1
     5     7     8    1
     6     8     9    1
     7     9    10    1
     8    10    11    1
     9    11    12    1
    10    12    13    1
    11    13     1    1
    12     1     2   ar
    13     2     3   ar
    14     3     4   ar
    15     4    21    1
    16    21    22    2
    17    22    23    1
    18    23    24    2
    19    24    25    1
    20    25    30    1
    21    30    31    1
    22    30    32    1
    23    30    33    1
    24    25    26    2
    25    26    27    1
    26    27    28    1
    27    28    29    2
    28     4     5   ar
    29     5     6   ar
    30    13    14    1
    31    14    15    1
    32    10    16    1
    33    16     7    1
    34    15    10    1
    35     6     1   ar
    36    29    21    1
    37    28    23    1
