@<TRIPOS>MOLECULE
*****
 30 32 0 0 0
SMALL
GASTEIGER

@<TRIPOS>ATOM
      1 N          64.3525   87.7988   14.9185 N.am    1  UNL1       -0.3011
      2 C          63.7361   89.1662   14.9056 C.2     1  UNL1        0.2372
      3 O          62.5119   89.4448   15.7264 O.2     1  UNL1       -0.2736
      4 H          65.1560   87.6160   14.3798 H       1  UNL1        0.1497
      5 C          64.3439   90.2551   14.0719 C.3     1  UNL1        0.1348
      6 C          65.5989   90.9377   14.5290 C.3     1  UNL1        0.0254
      7 C          66.2067   92.0265   13.6953 C.3     1  UNL1        0.0033
      8 C          65.5594   92.4328   12.4046 C.3     1  UNL1        0.0174
      9 C          64.3044   91.7502   11.9475 C.3     1  UNL1        0.0726
     10 N          63.6966   90.6613   12.7812 N.3     1  UNL1       -0.2634
     11 C          62.4416   89.9787   12.3241 C.3     1  UNL1        0.1204
     12 C          62.3992   89.3056   10.9843 C.3     1  UNL1        0.2227
     13 O          61.4953   88.1290   10.7643 O.3     1  UNL1       -0.4740
     14 C          62.0722   86.8064   10.3545 C.ar    1  UNL1        0.1386
     15 C          62.4056   86.5471    8.9152 C.ar    1  UNL1        0.0369
     16 C          62.9825   85.2245    8.5055 C.ar    1  UNL1        0.0031
     17 C          63.2259   84.1611    9.5350 C.ar    1  UNL1        0.0002
     18 C          62.8925   84.4204   10.9744 C.ar    1  UNL1        0.0031
     19 C          62.3157   85.7430   11.3841 C.ar    1  UNL1        0.0369
     20 C          63.2555   87.0107   17.1378 C.3     1  UNL1        0.0262
     21 C          63.7447   86.7099   15.7522 C.3     1  UNL1        0.0942
     22 C          63.6262   85.3203   15.2001 C.ar    1  UNL1       -0.0045
     23 C          64.7000   84.7741   14.3065 C.ar    1  UNL1       -0.0026
     24 C          64.5815   83.3845   13.7544 C.ar    1  UNL1        0.0009
     25 C          63.3891   82.5409   14.0960 C.ar    1  UNL1        0.0140
     26 C          62.3152   83.0870   14.9897 C.ar    1  UNL1        0.0009
     27 C          62.4338   84.4767   15.5417 C.ar    1  UNL1       -0.0026
     28 C          63.2706   81.1512   13.5440 C.2     1  UNL1        0.0729
     29 O          62.9400   80.9454   12.0953 O.co2   1  UNL1       -0.5446
     30 O          63.4826   79.9675   14.4404 O.co2   1  UNL1       -0.5446
@<TRIPOS>UNITY_ATOM_ATTR
29 1
charge -1
@<TRIPOS>BOND
     1    21    20    1
     2    21     1    1
     3     1     2   am
     4     2     3    2
     5     5     2    1
     6     5     6    1
     7     6     7    1
     8     7     8    1
     9     8     9    1
    10     9    10    1
    11    10    11    1
    12    11    12    1
    13    12    13    1
    14    13    14    1
    15    14    15   ar
    16    15    16   ar
    17    16    17   ar
    18    17    18   ar
    19    18    19   ar
    20    21    22    1
    21    22    23   ar
    22    23    24   ar
    23    24    25   ar
    24    25    28    1
    25    28    29   ar
    26    28    30   ar
    27    25    26   ar
    28    26    27   ar
    29    10     5    1
    30    19    14   ar
    31    27    22   ar
    32     1     4    1
@<TRIPOS>MOLECULE
*****
 30 32 0 0 0
SMALL
GASTEIGER

@<TRIPOS>ATOM
      1 N          64.3967   87.9601   14.8686 N.am    1  UNL1       -0.3011
      2 C          63.8002   89.3340   14.7874 C.2     1  UNL1        0.2372
      3 O          62.5022   89.6301   15.4785 O.2     1  UNL1       -0.2736
      4 H          65.2487   87.7658   14.4150 H       1  UNL1        0.1497
      5 C          64.5017   90.4118   14.0152 C.3     1  UNL1        0.1348
      6 C          65.7490   91.0378   14.5651 C.3     1  UNL1        0.0254
      7 C          66.4504   92.1156   13.7928 C.3     1  UNL1        0.0033
      8 C          65.9046   92.5674   12.4708 C.3     1  UNL1        0.0174
      9 C          64.6573   91.9414   11.9209 C.3     1  UNL1        0.0726
     10 N          63.9558   90.8637   12.6931 N.3     1  UNL1       -0.2634
     11 C          62.7085   90.2376   12.1433 C.3     1  UNL1        0.1204
     12 C          62.7101   89.6493   10.7635 C.3     1  UNL1        0.2227
     13 O          62.3128   88.2176   10.5581 O.3     1  UNL1       -0.4740
     14 C          61.3002   87.8631    9.5098 C.ar    1  UNL1        0.1386
     15 C          61.1360   86.4361    9.0778 C.ar    1  UNL1        0.0369
     16 C          60.1234   86.0817    8.0295 C.ar    1  UNL1        0.0031
     17 C          59.2749   87.1542    7.4132 C.ar    1  UNL1        0.0002
     18 C          59.4391   88.5813    7.8452 C.ar    1  UNL1        0.0031
     19 C          60.4518   88.9357    8.8936 C.ar    1  UNL1        0.0369
     20 C          63.1384   87.1763   17.0022 C.3     1  UNL1        0.0262
     21 C          63.6953   86.8823   15.6408 C.3     1  UNL1        0.0942
     22 C          63.5507   85.5105   15.0516 C.ar    1  UNL1       -0.0045
     23 C          64.3406   85.1299   13.8346 C.ar    1  UNL1       -0.0026
     24 C          64.1961   83.7580   13.2454 C.ar    1  UNL1        0.0009
     25 C          63.2616   82.7668   13.8731 C.ar    1  UNL1        0.0140
     26 C          62.4717   83.1473   15.0902 C.ar    1  UNL1        0.0009
     27 C          62.6162   84.5192   15.6794 C.ar    1  UNL1       -0.0026
     28 C          63.1171   81.3950   13.2839 C.2     1  UNL1        0.0729
     29 O          62.9923   80.2015   14.1840 O.co2   1  UNL1       -0.5446
     30 O          63.0974   81.2166   11.7947 O.co2   1  UNL1       -0.5446
@<TRIPOS>UNITY_ATOM_ATTR
29 1
charge -1
@<TRIPOS>BOND
     1    21    20    1
     2    21     1    1
     3     1     2   am
     4     2     3    2
     5     5     2    1
     6     5     6    1
     7     6     7    1
     8     7     8    1
     9     8     9    1
    10     9    10    1
    11    10    11    1
    12    11    12    1
    13    12    13    1
    14    13    14    1
    15    14    15   ar
    16    15    16   ar
    17    16    17   ar
    18    17    18   ar
    19    18    19   ar
    20    21    22    1
    21    22    23   ar
    22    23    24   ar
    23    24    25   ar
    24    25    28    1
    25    28    29   ar
    26    28    30   ar
    27    25    26   ar
    28    26    27   ar
    29    10     5    1
    30    19    14   ar
    31    27    22   ar
    32     1     4    1
@<TRIPOS>MOLECULE
*****
 30 32 0 0 0
SMALL
GASTEIGER

@<TRIPOS>ATOM
      1 N          62.9066   89.6460   10.2467 N.am    1  UNL1       -0.3011
      2 C          63.0900   90.3044   11.5819 C.2     1  UNL1        0.2372
      3 O          62.2551   89.8740   12.7514 O.2     1  UNL1       -0.2736
      4 H          63.4547   89.9285    9.4792 H       1  UNL1        0.1497
      5 C          64.1084   91.3932   11.7478 C.3     1  UNL1        0.1348
      6 C          64.3310   92.3861   10.6457 C.3     1  UNL1        0.0254
      7 C          65.3494   93.4748   10.8116 C.3     1  UNL1        0.0033
      8 C          66.1450   93.5708   12.0795 C.3     1  UNL1        0.0174
      9 C          65.9224   92.5779   13.1816 C.3     1  UNL1        0.0726
     10 N          64.9041   91.4891   13.0157 N.3     1  UNL1       -0.2634
     11 C          64.6814   90.4962   14.1178 C.3     1  UNL1        0.1204
     12 C          64.0951   90.9443   15.4238 C.3     1  UNL1        0.2227
     13 O          63.1631   90.0417   16.1765 O.3     1  UNL1       -0.4740
     14 C          63.3774   88.5572   16.1564 C.ar    1  UNL1        0.1386
     15 C          64.1215   87.9222   15.0193 C.ar    1  UNL1        0.0369
     16 C          64.3358   86.4377   14.9991 C.ar    1  UNL1        0.0031
     17 C          63.8059   85.5882   16.1160 C.ar    1  UNL1        0.0002
     18 C          63.0618   86.2232   17.2532 C.ar    1  UNL1        0.0031
     19 C          62.8475   87.7077   17.2734 C.ar    1  UNL1        0.0369
     20 C          60.4754   88.9014    9.7130 C.3     1  UNL1        0.0262
     21 C          61.8883   88.5572   10.0809 C.3     1  UNL1        0.0942
     22 C          62.2828   87.1242   10.2829 C.ar    1  UNL1       -0.0045
     23 C          62.6708   86.2799    9.1053 C.ar    1  UNL1       -0.0026
     24 C          63.0654   84.8469    9.3073 C.ar    1  UNL1        0.0009
     25 C          63.0720   84.2582   10.6869 C.ar    1  UNL1        0.0140
     26 C          62.6840   85.1024   11.8646 C.ar    1  UNL1        0.0009
     27 C          62.2894   86.5354   11.6625 C.ar    1  UNL1       -0.0026
     28 C          63.4666   82.8252   10.8889 C.2     1  UNL1        0.0729
     29 O          64.6255   82.2520   10.1284 O.co2   1  UNL1       -0.5446
     30 O          62.7023   81.9653   11.8515 O.co2   1  UNL1       -0.5446
@<TRIPOS>UNITY_ATOM_ATTR
29 1
charge -1
@<TRIPOS>BOND
     1    21    20    1
     2    21     1    1
     3     1     2   am
     4     2     3    2
     5     5     2    1
     6     5     6    1
     7     6     7    1
     8     7     8    1
     9     8     9    1
    10     9    10    1
    11    10    11    1
    12    11    12    1
    13    12    13    1
    14    13    14    1
    15    14    15   ar
    16    15    16   ar
    17    16    17   ar
    18    17    18   ar
    19    18    19   ar
    20    21    22    1
    21    22    23   ar
    22    23    24   ar
    23    24    25   ar
    24    25    28    1
    25    28    29   ar
    26    28    30   ar
    27    25    26   ar
    28    26    27   ar
    29    10     5    1
    30    19    14   ar
    31    27    22   ar
    32     1     4    1
@<TRIPOS>MOLECULE
*****
 30 32 0 0 0
SMALL
GASTEIGER

@<TRIPOS>ATOM
      1 N          62.8482   89.1252   11.2387 N.am    1  UNL1       -0.3011
      2 C          61.3764   89.2743   10.9908 C.2     1  UNL1        0.2372
      3 O          60.5551   90.1716   11.8684 O.2     1  UNL1       -0.2736
      4 H          63.3872   88.5363   10.6626 H       1  UNL1        0.1497
      5 C          60.7258   88.5259    9.8652 C.3     1  UNL1        0.1348
      6 C          60.1405   89.2758    8.7055 C.3     1  UNL1        0.0254
      7 C          59.4899   88.5274    7.5800 C.3     1  UNL1        0.0033
      8 C          59.4247   87.0292    7.6143 C.3     1  UNL1        0.0174
      9 C          60.0099   86.2794    8.7741 C.3     1  UNL1        0.0726
     10 N          60.6605   87.0277    9.8996 N.3     1  UNL1       -0.2634
     11 C          61.2458   86.2779   11.0594 C.3     1  UNL1        0.1204
     12 C          62.3461   85.2842   10.8317 C.3     1  UNL1        0.2227
     13 O          63.1120   84.7329   11.9976 O.3     1  UNL1       -0.4740
     14 C          62.8539   83.3328   12.4700 C.ar    1  UNL1        0.1386
     15 C          62.3784   83.0899   13.8717 C.ar    1  UNL1        0.0369
     16 C          62.1203   81.6898   14.3441 C.ar    1  UNL1        0.0031
     17 C          62.3377   80.5326   13.4148 C.ar    1  UNL1        0.0002
     18 C          62.8132   80.7755   12.0130 C.ar    1  UNL1        0.0031
     19 C          63.0713   82.1756   11.5406 C.ar    1  UNL1        0.0369
     20 C          63.4060   89.3488   13.7663 C.3     1  UNL1        0.0262
     21 C          63.4988   89.8736   12.3642 C.3     1  UNL1        0.0942
     22 C          64.2422   91.1467   12.0876 C.ar    1  UNL1       -0.0045
     23 C          64.1617   91.7827   10.7315 C.ar    1  UNL1       -0.0026
     24 C          64.9051   93.0558   10.4548 C.ar    1  UNL1        0.0009
     25 C          65.7290   93.6929   11.5342 C.ar    1  UNL1        0.0140
     26 C          65.8095   93.0569   12.8904 C.ar    1  UNL1        0.0009
     27 C          65.0661   91.7838   13.1671 C.ar    1  UNL1       -0.0026
     28 C          66.4724   94.9660   11.2576 C.2     1  UNL1        0.0729
     29 O          67.5617   94.9896   10.2265 O.co2   1  UNL1       -0.5446
     30 O          66.1266   96.2155   12.0119 O.co2   1  UNL1       -0.5446
@<TRIPOS>UNITY_ATOM_ATTR
29 1
charge -1
@<TRIPOS>BOND
     1    21    20    1
     2    21     1    1
     3     1     2   am
     4     2     3    2
     5     5     2    1
     6     5     6    1
     7     6     7    1
     8     7     8    1
     9     8     9    1
    10     9    10    1
    11    10    11    1
    12    11    12    1
    13    12    13    1
    14    13    14    1
    15    14    15   ar
    16    15    16   ar
    17    16    17   ar
    18    17    18   ar
    19    18    19   ar
    20    21    22    1
    21    22    23   ar
    22    23    24   ar
    23    24    25   ar
    24    25    28    1
    25    28    29   ar
    26    28    30   ar
    27    25    26   ar
    28    26    27   ar
    29    10     5    1
    30    19    14   ar
    31    27    22   ar
    32     1     4    1
@<TRIPOS>MOLECULE
*****
 30 32 0 0 0
SMALL
GASTEIGER

@<TRIPOS>ATOM
      1 N          61.8272   89.0055    9.8350 N.am    1  UNL1       -0.3011
      2 C          61.4187   87.5795   10.0579 C.2     1  UNL1        0.2372
      3 O          60.8634   87.1572   11.3858 O.2     1  UNL1       -0.2736
      4 H          62.1917   89.2827    8.9635 H       1  UNL1        0.1497
      5 C          61.5656   86.5758    8.9528 C.3     1  UNL1        0.1348
      6 C          62.8718   85.8661    8.7530 C.3     1  UNL1        0.0254
      7 C          63.0186   84.8624    7.6480 C.3     1  UNL1        0.0033
      8 C          61.8591   84.5685    6.7429 C.3     1  UNL1        0.0174
      9 C          60.5529   85.2782    6.9427 C.3     1  UNL1        0.0726
     10 N          60.4061   86.2818    8.0477 N.3     1  UNL1       -0.2634
     11 C          59.0998   86.9916    8.2477 C.3     1  UNL1        0.1204
     12 C          58.7469   88.1692    7.3882 C.3     1  UNL1        0.2227
     13 O          59.8110   89.1431    6.9767 O.3     1  UNL1       -0.4740
     14 C          59.5009   90.2124    5.9715 C.ar    1  UNL1        0.1386
     15 C          60.6100   90.8505    5.1890 C.ar    1  UNL1        0.0369
     16 C          60.2999   91.9198    4.1838 C.ar    1  UNL1        0.0031
     17 C          58.8806   92.3510    3.9611 C.ar    1  UNL1        0.0002
     18 C          57.7713   91.7129    4.7437 C.ar    1  UNL1        0.0031
     19 C          58.0815   90.6436    5.7489 C.ar    1  UNL1        0.0369
     20 C          60.3223   90.3190   11.4963 C.3     1  UNL1        0.0262
     21 C          61.6804   90.0092   10.9401 C.3     1  UNL1        0.0942
     22 C          62.8918   90.7031   11.4888 C.ar    1  UNL1       -0.0045
     23 C          63.6900   91.6231   10.6134 C.ar    1  UNL1       -0.0026
     24 C          64.9014   92.3170   11.1622 C.ar    1  UNL1        0.0009
     25 C          65.3145   92.0909   12.5863 C.ar    1  UNL1        0.0140
     26 C          64.5162   91.1708   13.4618 C.ar    1  UNL1        0.0009
     27 C          63.3048   90.4770   12.9130 C.ar    1  UNL1       -0.0026
     28 C          66.5259   92.7847   13.1351 C.2     1  UNL1        0.0729
     29 O          67.8801   92.1558   12.9910 O.co2   1  UNL1       -0.5446
     30 O          66.3831   94.1075   13.8278 O.co2   1  UNL1       -0.5446
@<TRIPOS>UNITY_ATOM_ATTR
29 1
charge -1
@<TRIPOS>BOND
     1    21    20    1
     2    21     1    1
     3     1     2   am
     4     2     3    2
     5     5     2    1
     6     5     6    1
     7     6     7    1
     8     7     8    1
     9     8     9    1
    10     9    10    1
    11    10    11    1
    12    11    12    1
    13    12    13    1
    14    13    14    1
    15    14    15   ar
    16    15    16   ar
    17    16    17   ar
    18    17    18   ar
    19    18    19   ar
    20    21    22    1
    21    22    23   ar
    22    23    24   ar
    23    24    25   ar
    24    25    28    1
    25    28    29   ar
    26    28    30   ar
    27    25    26   ar
    28    26    27   ar
    29    10     5    1
    30    19    14   ar
    31    27    22   ar
    32     1     4    1
@<TRIPOS>MOLECULE
*****
 30 32 0 0 0
SMALL
GASTEIGER

@<TRIPOS>ATOM
      1 N          62.0257   90.2825   12.2302 N.am    1  UNL1       -0.3011
      2 C          63.1671   91.0187   11.5937 C.2     1  UNL1        0.2372
      3 O          63.1362   91.3257   10.1258 O.2     1  UNL1       -0.2736
      4 H          62.0461   90.0811   13.1936 H       1  UNL1        0.1497
      5 C          64.3396   91.4480   12.4251 C.3     1  UNL1        0.1348
      6 C          65.2508   92.5331   11.9331 C.3     1  UNL1        0.0254
      7 C          66.4231   92.9623   12.7645 C.3     1  UNL1        0.0033
      8 C          66.6843   92.3064   14.0880 C.3     1  UNL1        0.0174
      9 C          65.7730   91.2213   14.5800 C.3     1  UNL1        0.0726
     10 N          64.6007   90.7921   13.7486 N.3     1  UNL1       -0.2634
     11 C          63.6894   89.7069   14.2407 C.3     1  UNL1        0.1204
     12 C          64.1436   88.2776   14.2160 C.3     1  UNL1        0.2227
     13 O          63.5651   87.3239   13.2132 O.3     1  UNL1       -0.4740
     14 C          63.6014   85.8473   13.4746 C.ar    1  UNL1        0.1386
     15 C          64.3489   85.3138   14.6605 C.ar    1  UNL1        0.0369
     16 C          64.3853   83.8372   14.9219 C.ar    1  UNL1        0.0031
     17 C          63.6741   82.8941   13.9974 C.ar    1  UNL1        0.0002
     18 C          62.9265   83.4277   12.8113 C.ar    1  UNL1        0.0031
     19 C          62.8902   84.9043   12.5499 C.ar    1  UNL1        0.0369
     20 C          59.5313   90.5450   11.5527 C.3     1  UNL1        0.0262
     21 C          60.8533   89.8533   11.3988 C.3     1  UNL1        0.0942
     22 C          61.0030   88.7323   10.4134 C.ar    1  UNL1       -0.0045
     23 C          59.9110   88.4529    9.4237 C.ar    1  UNL1       -0.0026
     24 C          60.0607   87.3319    8.4383 C.ar    1  UNL1        0.0009
     25 C          61.3023   86.4903    8.4426 C.ar    1  UNL1        0.0140
     26 C          62.3944   86.7697    9.4323 C.ar    1  UNL1        0.0009
     27 C          62.2447   87.8907   10.4177 C.ar    1  UNL1       -0.0026
     28 C          61.4520   85.3693    7.4572 C.2     1  UNL1        0.0729
     29 O          60.2668   84.9052    6.6635 O.co2   1  UNL1       -0.5446
     30 O          62.7868   84.7125    7.2655 O.co2   1  UNL1       -0.5446
@<TRIPOS>UNITY_ATOM_ATTR
29 1
charge -1
@<TRIPOS>BOND
     1    21    20    1
     2    21     1    1
     3     1     2   am
     4     2     3    2
     5     5     2    1
     6     5     6    1
     7     6     7    1
     8     7     8    1
     9     8     9    1
    10     9    10    1
    11    10    11    1
    12    11    12    1
    13    12    13    1
    14    13    14    1
    15    14    15   ar
    16    15    16   ar
    17    16    17   ar
    18    17    18   ar
    19    18    19   ar
    20    21    22    1
    21    22    23   ar
    22    23    24   ar
    23    24    25   ar
    24    25    28    1
    25    28    29   ar
    26    28    30   ar
    27    25    26   ar
    28    26    27   ar
    29    10     5    1
    30    19    14   ar
    31    27    22   ar
    32     1     4    1
@<TRIPOS>MOLECULE
*****
 30 32 0 0 0
SMALL
GASTEIGER

@<TRIPOS>ATOM
      1 N          63.0438   89.2026   11.3820 N.am    1  UNL1       -0.3011
      2 C          61.5509   89.1133   11.2670 C.2     1  UNL1        0.2372
      3 O          60.6784   89.8188   12.2625 O.2     1  UNL1       -0.2736
      4 H          63.6164   88.7396   10.7286 H       1  UNL1        0.1497
      5 C          60.9304   88.3185   10.1564 C.3     1  UNL1        0.1348
      6 C          60.2279   89.0214    9.0329 C.3     1  UNL1        0.0254
      7 C          59.6075   88.2266    7.9224 C.3     1  UNL1        0.0033
      8 C          59.6895   86.7289    7.9354 C.3     1  UNL1        0.0174
      9 C          60.3920   86.0260    9.0589 C.3     1  UNL1        0.0726
     10 N          61.0125   86.8208   10.1695 N.3     1  UNL1       -0.2634
     11 C          61.7150   86.1180   11.2931 C.3     1  UNL1        0.1204
     12 C          62.3964   84.8046   11.0467 C.3     1  UNL1        0.2227
     13 O          63.4435   84.3122   12.0012 O.3     1  UNL1       -0.4740
     14 C          63.3872   84.7095   13.4465 C.ar    1  UNL1        0.1386
     15 C          62.4351   84.0192   14.3776 C.ar    1  UNL1        0.0369
     16 C          62.3789   84.4166   15.8229 C.ar    1  UNL1        0.0031
     17 C          63.2747   85.5042   16.3371 C.ar    1  UNL1        0.0002
     18 C          64.2269   86.1945   15.4060 C.ar    1  UNL1        0.0031
     19 C          64.2832   85.7972   13.9607 C.ar    1  UNL1        0.0369
     20 C          63.5769   89.5051   13.9068 C.3     1  UNL1        0.0262
     21 C          63.6643   89.9974   12.4926 C.3     1  UNL1        0.0942
     22 C          64.3721   91.2846   12.1890 C.ar    1  UNL1       -0.0045
     23 C          65.1896   91.9594   13.2502 C.ar    1  UNL1       -0.0026
     24 C          65.8974   93.2466   12.9466 C.ar    1  UNL1        0.0009
     25 C          65.7878   93.8589   11.5817 C.ar    1  UNL1        0.0140
     26 C          64.9702   93.1841   10.5203 C.ar    1  UNL1        0.0009
     27 C          64.2624   91.8969   10.8240 C.ar    1  UNL1       -0.0026
     28 C          66.4956   95.1461   11.2780 C.2     1  UNL1        0.0729
     29 O          66.1154   96.4010   12.0065 O.co2   1  UNL1       -0.5446
     30 O          67.5836   95.1783   10.2459 O.co2   1  UNL1       -0.5446
@<TRIPOS>UNITY_ATOM_ATTR
29 1
charge -1
@<TRIPOS>BOND
     1    21    20    1
     2    21     1    1
     3     1     2   am
     4     2     3    2
     5     5     2    1
     6     5     6    1
     7     6     7    1
     8     7     8    1
     9     8     9    1
    10     9    10    1
    11    10    11    1
    12    11    12    1
    13    12    13    1
    14    13    14    1
    15    14    15   ar
    16    15    16   ar
    17    16    17   ar
    18    17    18   ar
    19    18    19   ar
    20    21    22    1
    21    22    23   ar
    22    23    24   ar
    23    24    25   ar
    24    25    28    1
    25    28    29   ar
    26    28    30   ar
    27    25    26   ar
    28    26    27   ar
    29    10     5    1
    30    19    14   ar
    31    27    22   ar
    32     1     4    1
@<TRIPOS>MOLECULE
*****
 30 32 0 0 0
SMALL
GASTEIGER

@<TRIPOS>ATOM
      1 N          62.8599   87.2876   11.7430 N.am    1  UNL1       -0.3011
      2 C          62.1791   86.1424   11.0538 C.2     1  UNL1        0.2372
      3 O          60.8686   86.3585   10.3568 O.2     1  UNL1       -0.2736
      4 H          63.7200   87.1458   12.2004 H       1  UNL1        0.1497
      5 C          62.8090   84.7810   11.0615 C.3     1  UNL1        0.1348
      6 C          63.4431   84.2408    9.8141 C.3     1  UNL1        0.0254
      7 C          64.0728   82.8795    9.8219 C.3     1  UNL1        0.0033
      8 C          64.0685   82.0583   11.0771 C.3     1  UNL1        0.0174
      9 C          63.4344   82.5984   12.3246 C.3     1  UNL1        0.0726
     10 N          62.8046   83.9598   12.3168 N.3     1  UNL1       -0.2634
     11 C          62.1705   84.5000   13.5642 C.3     1  UNL1        0.1204
     12 C          62.5528   83.9408   14.9026 C.3     1  UNL1        0.2227
     13 O          63.6315   84.5995   15.7103 O.3     1  UNL1       -0.4740
     14 C          63.5552   86.0677   16.0076 C.ar    1  UNL1        0.1386
     15 C          62.8750   86.5458   17.2561 C.ar    1  UNL1        0.0369
     16 C          62.7987   88.0141   17.5534 C.ar    1  UNL1        0.0031
     17 C          63.4026   89.0043   16.6022 C.ar    1  UNL1        0.0002
     18 C          64.0828   88.5262   15.3536 C.ar    1  UNL1        0.0031
     19 C          64.1591   87.0580   15.0563 C.ar    1  UNL1        0.0369
     20 C          60.7366   88.7847   11.7677 C.3     1  UNL1        0.0262
     21 C          62.2301   88.6490   11.7352 C.3     1  UNL1        0.0942
     22 C          63.0938   89.8747   11.6949 C.ar    1  UNL1       -0.0045
     23 C          63.8315   90.3131   12.9252 C.ar    1  UNL1       -0.0026
     24 C          64.6952   91.5388   12.8849 C.ar    1  UNL1        0.0009
     25 C          64.8213   92.3261   11.6144 C.ar    1  UNL1        0.0140
     26 C          64.0835   91.8877   10.3840 C.ar    1  UNL1        0.0009
     27 C          63.2198   90.6620   10.4243 C.ar    1  UNL1       -0.0026
     28 C          65.6850   93.5518   11.5741 C.2     1  UNL1        0.0729
     29 O          65.4161   94.6259   10.5620 O.co2   1  UNL1       -0.5446
     30 O          66.8175   93.7035   12.5458 O.co2   1  UNL1       -0.5446
@<TRIPOS>UNITY_ATOM_ATTR
29 1
charge -1
@<TRIPOS>BOND
     1    21    20    1
     2    21     1    1
     3     1     2   am
     4     2     3    2
     5     5     2    1
     6     5     6    1
     7     6     7    1
     8     7     8    1
     9     8     9    1
    10     9    10    1
    11    10    11    1
    12    11    12    1
    13    12    13    1
    14    13    14    1
    15    14    15   ar
    16    15    16   ar
    17    16    17   ar
    18    17    18   ar
    19    18    19   ar
    20    21    22    1
    21    22    23   ar
    22    23    24   ar
    23    24    25   ar
    24    25    28    1
    25    28    29   ar
    26    28    30   ar
    27    25    26   ar
    28    26    27   ar
    29    10     5    1
    30    19    14   ar
    31    27    22   ar
    32     1     4    1
@<TRIPOS>MOLECULE
*****
 30 32 0 0 0
SMALL
GASTEIGER

@<TRIPOS>ATOM
      1 N          61.7185   85.1370   11.1711 N.am    1  UNL1       -0.3011
      2 C          62.7854   84.1428   10.8199 C.2     1  UNL1        0.2372
      3 O          63.6337   84.3522    9.6008 O.2     1  UNL1       -0.2736
      4 H          61.1617   84.9996   11.9713 H       1  UNL1        0.1497
      5 C          63.0039   82.9391   11.6880 C.3     1  UNL1        0.1348
      6 C          62.3154   81.6463   11.3646 C.3     1  UNL1        0.0254
      7 C          62.5339   80.4427   12.2326 C.3     1  UNL1        0.0033
      8 C          63.4409   80.5319   13.4240 C.3     1  UNL1        0.0174
      9 C          64.1294   81.8247   13.7474 C.3     1  UNL1        0.0726
     10 N          63.9109   83.0283   12.8794 N.3     1  UNL1       -0.2634
     11 C          64.5994   84.3212   13.2027 C.3     1  UNL1        0.1204
     12 C          65.1640   84.5477   14.5738 C.3     1  UNL1        0.2227
     13 O          64.2433   84.7723   15.7364 O.3     1  UNL1       -0.4740
     14 C          63.8422   86.1667   16.1170 C.ar    1  UNL1        0.1386
     15 C          64.2456   87.3252   15.2538 C.ar    1  UNL1        0.0369
     16 C          63.8445   88.7195   15.6344 C.ar    1  UNL1        0.0031
     17 C          63.0399   88.9554   16.8782 C.ar    1  UNL1        0.0002
     18 C          62.6364   87.7969   17.7414 C.ar    1  UNL1        0.0031
     19 C          63.0375   86.4025   17.3608 C.ar    1  UNL1        0.0369
     20 C          60.6595   86.2305    9.0657 C.3     1  UNL1        0.0262
     21 C          61.5000   86.3408   10.3031 C.3     1  UNL1        0.0942
     22 C          62.1221   87.6547   10.6726 C.ar    1  UNL1       -0.0045
     23 C          62.8317   87.8058   11.9854 C.ar    1  UNL1       -0.0026
     24 C          63.4538   89.1198   12.3549 C.ar    1  UNL1        0.0009
     25 C          63.3663   90.2826   11.4115 C.ar    1  UNL1        0.0140
     26 C          62.6567   90.1316   10.0985 C.ar    1  UNL1        0.0009
     27 C          62.0346   88.8176    9.7291 C.ar    1  UNL1       -0.0026
     28 C          63.9884   91.5966   11.7810 C.2     1  UNL1        0.0729
     29 O          64.4698   92.5268   10.7071 O.co2   1  UNL1       -0.5446
     30 O          64.1291   91.9804   13.2242 O.co2   1  UNL1       -0.5446
@<TRIPOS>UNITY_ATOM_ATTR
29 1
charge -1
@<TRIPOS>BOND
     1    21    20    1
     2    21     1    1
     3     1     2   am
     4     2     3    2
     5     5     2    1
     6     5     6    1
     7     6     7    1
     8     7     8    1
     9     8     9    1
    10     9    10    1
    11    10    11    1
    12    11    12    1
    13    12    13    1
    14    13    14    1
    15    14    15   ar
    16    15    16   ar
    17    16    17   ar
    18    17    18   ar
    19    18    19   ar
    20    21    22    1
    21    22    23   ar
    22    23    24   ar
    23    24    25   ar
    24    25    28    1
    25    28    29   ar
    26    28    30   ar
    27    25    26   ar
    28    26    27   ar
    29    10     5    1
    30    19    14   ar
    31    27    22   ar
    32     1     4    1
