@<TRIPOS>MOLECULE
*****
 26 29 0 0 0
SMALL
GASTEIGER

@<TRIPOS>ATOM
      1 C          62.8827   89.9817   10.8768 C.ar    1  UNL1        0.0001
      2 C          63.3956   91.0571    9.9656 C.ar    1  UNL1        0.0000
      3 C          64.3782   92.0682   10.4775 C.ar    1  UNL1        0.0001
      4 C          64.8479   92.0039   11.9006 C.ar    1  UNL1        0.0030
      5 C          65.8306   93.0151   12.4124 C.ar    1  UNL1        0.0352
      6 C          66.3003   92.9508   13.8355 C.ar    1  UNL1        0.1336
      7 O          67.2830   93.9619   14.3474 O.3     1  UNL1       -0.5055
      8 C          65.7874   91.8753   14.7468 C.ar    1  UNL1        0.0366
      9 C          64.8047   90.8642   14.2349 C.ar    1  UNL1        0.0031
     10 C          64.3350   90.9285   12.8118 C.ar    1  UNL1        0.0002
     11 C          63.3524   89.9174   12.2999 C.ar    1  UNL1        0.0000
     12 H          67.6034   94.6337   13.7782 H       1  UNL1        0.2922
     13 O          59.0665   88.6724    7.6022 O.3     1  UNL1       -0.5055
     14 C          59.9919   88.3159    8.7276 C.ar    1  UNL1        0.1337
     15 C          59.9347   86.9483    9.3412 C.ar    1  UNL1        0.0366
     16 C          60.8601   86.5918   10.4666 C.ar    1  UNL1        0.0031
     17 C          61.8427   87.6030   10.9784 C.ar    1  UNL1        0.0002
     18 C          61.9000   88.9705   10.3649 C.ar    1  UNL1        0.0030
     19 C          60.9746   89.3270    9.2395 C.ar    1  UNL1        0.0366
     20 H          58.4527   88.0408    7.2825 H       1  UNL1        0.2922
     21 C          66.3435   94.0905   11.5012 C.ar    1  UNL1        0.0221
     22 C          65.9047   95.5115   11.6967 C.ar    1  UNL1        0.0032
     23 C          66.4177   96.5869   10.7854 C.ar    1  UNL1        0.0207
     24 C          67.3694   96.2413    9.6787 C.ar    1  UNL1        0.0989
     25 N          67.8082   94.8203    9.4833 N.ar    1  UNL1       -0.2423
     26 C          67.2953   93.7449   10.3945 C.ar    1  UNL1        0.0989
@<TRIPOS>BOND
     1    13    14    1
     2    14    15   ar
     3    15    16   ar
     4    16    17   ar
     5    17    18   ar
     6    18     1    1
     7     1     2   ar
     8     2     3   ar
     9     3     4   ar
    10     4     5   ar
    11     5    21    1
    12    21    22   ar
    13    22    23   ar
    14    23    24   ar
    15    24    25   ar
    16    25    26   ar
    17     5     6   ar
    18     6     7    1
    19     6     8   ar
    20     8     9   ar
    21     9    10   ar
    22    10    11   ar
    23    18    19   ar
    24    19    14   ar
    25    11     1   ar
    26    10     4   ar
    27    26    21   ar
    28    13    20    1
    29     7    12    1
@<TRIPOS>MOLECULE
*****
 26 29 0 0 0
SMALL
GASTEIGER

@<TRIPOS>ATOM
      1 C          64.2069   89.1357   14.0611 C.ar    1  UNL1        0.0001
      2 C          63.5683   89.2972   12.7135 C.ar    1  UNL1        0.0000
      3 C          63.0945   88.0907   11.9587 C.ar    1  UNL1        0.0001
      4 C          63.2593   86.7227   12.5514 C.ar    1  UNL1        0.0030
      5 C          62.7854   85.5162   11.7965 C.ar    1  UNL1        0.0352
      6 C          62.9502   84.1481   12.3892 C.ar    1  UNL1        0.1336
      7 O          62.4764   82.9417   11.6344 O.3     1  UNL1       -0.5055
      8 C          63.5889   83.9866   13.7369 C.ar    1  UNL1        0.0366
      9 C          64.0627   85.1931   14.4917 C.ar    1  UNL1        0.0031
     10 C          63.8979   86.5611   13.8990 C.ar    1  UNL1        0.0002
     11 C          64.3717   87.7676   14.6538 C.ar    1  UNL1        0.0000
     12 H          62.0774   83.0425   10.7926 H       1  UNL1        0.2922
     13 O          67.6454   92.9781   14.7032 O.3     1  UNL1       -0.5055
     14 C          66.4001   92.2634   15.1370 C.ar    1  UNL1        0.1337
     15 C          65.6286   92.7552   16.3257 C.ar    1  UNL1        0.0366
     16 C          64.3832   92.0404   16.7596 C.ar    1  UNL1        0.0031
     17 C          63.9093   90.8339   16.0046 C.ar    1  UNL1        0.0002
     18 C          64.6808   90.3422   14.8160 C.ar    1  UNL1        0.0030
     19 C          65.9262   91.0569   14.3822 C.ar    1  UNL1        0.0366
     20 H          67.9415   93.7318   15.1747 H       1  UNL1        0.2922
     21 C          62.1468   85.6777   10.4489 C.ar    1  UNL1        0.0221
     22 C          62.8647   85.2098    9.2178 C.ar    1  UNL1        0.0032
     23 C          62.2260   85.3713    7.8701 C.ar    1  UNL1        0.0207
     24 C          60.8695   86.0008    7.7537 C.ar    1  UNL1        0.0989
     25 N          60.1516   86.4688    8.9848 N.ar    1  UNL1       -0.2423
     26 C          60.7902   86.3072   10.3324 C.ar    1  UNL1        0.0989
@<TRIPOS>BOND
     1    13    14    1
     2    14    15   ar
     3    15    16   ar
     4    16    17   ar
     5    17    18   ar
     6    18     1    1
     7     1     2   ar
     8     2     3   ar
     9     3     4   ar
    10     4     5   ar
    11     5    21    1
    12    21    22   ar
    13    22    23   ar
    14    23    24   ar
    15    24    25   ar
    16    25    26   ar
    17     5     6   ar
    18     6     7    1
    19     6     8   ar
    20     8     9   ar
    21     9    10   ar
    22    10    11   ar
    23    18    19   ar
    24    19    14   ar
    25    11     1   ar
    26    10     4   ar
    27    26    21   ar
    28    13    20    1
    29     7    12    1
@<TRIPOS>MOLECULE
*****
 26 29 0 0 0
SMALL
GASTEIGER

@<TRIPOS>ATOM
      1 C          62.9483   84.9975   12.6237 C.ar    1  UNL1        0.0001
      2 C          63.5998   85.7782   13.7263 C.ar    1  UNL1        0.0000
      3 C          63.7176   87.2698   13.6208 C.ar    1  UNL1        0.0001
      4 C          63.1838   87.9807   12.4126 C.ar    1  UNL1        0.0030
      5 C          63.3016   89.4724   12.3072 C.ar    1  UNL1        0.0352
      6 C          62.7678   90.1833   11.0990 C.ar    1  UNL1        0.1336
      7 O          62.8856   91.6749   10.9935 O.3     1  UNL1       -0.5055
      8 C          62.1162   89.4025    9.9963 C.ar    1  UNL1        0.0366
      9 C          61.9985   87.9109   10.1018 C.ar    1  UNL1        0.0031
     10 C          62.5322   87.2000   11.3100 C.ar    1  UNL1        0.0002
     11 C          62.4145   85.7084   11.4155 C.ar    1  UNL1        0.0000
     12 H          63.2926   92.1626   11.6823 H       1  UNL1        0.2922
     13 O          63.0814   80.3044   10.3972 O.3     1  UNL1       -0.5055
     14 C          62.8971   81.1593   11.6159 C.ar    1  UNL1        0.1337
     15 C          62.5949   80.5225   12.9400 C.ar    1  UNL1        0.0366
     16 C          62.4105   81.3774   14.1587 C.ar    1  UNL1        0.0031
     17 C          62.5283   82.8691   14.0532 C.ar    1  UNL1        0.0002
     18 C          62.8305   83.5058   12.7291 C.ar    1  UNL1        0.0030
     19 C          63.0148   82.6509   11.5105 C.ar    1  UNL1        0.0366
     20 H          63.0078   79.3726   10.4631 H       1  UNL1        0.2922
     21 C          63.9531   90.2531   13.4099 C.ar    1  UNL1        0.0221
     22 C          65.3085   90.8603   13.1994 C.ar    1  UNL1        0.0032
     23 C          65.9600   91.6410   14.3021 C.ar    1  UNL1        0.0207
     24 C          65.2562   91.8146   15.6153 C.ar    1  UNL1        0.0989
     25 N          63.9008   91.2074   15.8258 N.ar    1  UNL1       -0.2423
     26 C          63.2493   90.4267   14.7231 C.ar    1  UNL1        0.0989
@<TRIPOS>BOND
     1    13    14    1
     2    14    15   ar
     3    15    16   ar
     4    16    17   ar
     5    17    18   ar
     6    18     1    1
     7     1     2   ar
     8     2     3   ar
     9     3     4   ar
    10     4     5   ar
    11     5    21    1
    12    21    22   ar
    13    22    23   ar
    14    23    24   ar
    15    24    25   ar
    16    25    26   ar
    17     5     6   ar
    18     6     7    1
    19     6     8   ar
    20     8     9   ar
    21     9    10   ar
    22    10    11   ar
    23    18    19   ar
    24    19    14   ar
    25    11     1   ar
    26    10     4   ar
    27    26    21   ar
    28    13    20    1
    29     7    12    1
@<TRIPOS>MOLECULE
*****
 26 29 0 0 0
SMALL
GASTEIGER

@<TRIPOS>ATOM
      1 C          62.9575   85.0126   12.2847 C.ar    1  UNL1        0.0001
      2 C          63.5915   85.7608   13.4196 C.ar    1  UNL1        0.0000
      3 C          63.6710   87.2582   13.3791 C.ar    1  UNL1        0.0001
      4 C          63.1164   88.0072   12.2038 C.ar    1  UNL1        0.0030
      5 C          63.1960   89.5046   12.1634 C.ar    1  UNL1        0.0352
      6 C          62.6414   90.2536   10.9881 C.ar    1  UNL1        0.1336
      7 O          62.7208   91.7509   10.9476 O.3     1  UNL1       -0.5055
      8 C          62.0073   89.5053    9.8532 C.ar    1  UNL1        0.0366
      9 C          61.9278   88.0079    9.8936 C.ar    1  UNL1        0.0031
     10 C          62.4824   87.2589   11.0689 C.ar    1  UNL1        0.0002
     11 C          62.4029   85.7616   11.1094 C.ar    1  UNL1        0.0000
     12 H          63.1169   92.2184   11.6566 H       1  UNL1        0.2922
     13 O          61.9300   80.6292   14.8790 O.3     1  UNL1       -0.5055
     14 C          62.3642   81.3235   13.6223 C.ar    1  UNL1        0.1337
     15 C          62.7189   80.5205   12.4060 C.ar    1  UNL1        0.0366
     16 C          63.1531   81.2148   11.1493 C.ar    1  UNL1        0.0031
     17 C          63.2327   82.7122   11.1088 C.ar    1  UNL1        0.0002
     18 C          62.8780   83.5152   12.3251 C.ar    1  UNL1        0.0030
     19 C          62.4437   82.8208   13.5818 C.ar    1  UNL1        0.0366
     20 H          61.8803   79.6939   14.9043 H       1  UNL1        0.2922
     21 C          63.8300   90.2529   13.2983 C.ar    1  UNL1        0.0221
     22 C          65.1459   90.9447   13.0983 C.ar    1  UNL1        0.0032
     23 C          65.7799   91.6930   14.2332 C.ar    1  UNL1        0.0207
     24 C          65.0982   91.7495   15.5681 C.ar    1  UNL1        0.0989
     25 N          63.7823   91.0577   15.7681 N.ar    1  UNL1       -0.2423
     26 C          63.1483   90.3094   14.6333 C.ar    1  UNL1        0.0989
@<TRIPOS>BOND
     1    13    14    1
     2    14    15   ar
     3    15    16   ar
     4    16    17   ar
     5    17    18   ar
     6    18     1    1
     7     1     2   ar
     8     2     3   ar
     9     3     4   ar
    10     4     5   ar
    11     5    21    1
    12    21    22   ar
    13    22    23   ar
    14    23    24   ar
    15    24    25   ar
    16    25    26   ar
    17     5     6   ar
    18     6     7    1
    19     6     8   ar
    20     8     9   ar
    21     9    10   ar
    22    10    11   ar
    23    18    19   ar
    24    19    14   ar
    25    11     1   ar
    26    10     4   ar
    27    26    21   ar
    28    13    20    1
    29     7    12    1
@<TRIPOS>MOLECULE
*****
 26 29 0 0 0
SMALL
GASTEIGER

@<TRIPOS>ATOM
      1 C          64.2817   89.6170   13.8653 C.ar    1  UNL1        0.0001
      2 C          64.4775   88.1843   14.2640 C.ar    1  UNL1        0.0000
      3 C          63.8634   87.0875   13.4456 C.ar    1  UNL1        0.0001
      4 C          63.0535   87.4233   12.2286 C.ar    1  UNL1        0.0030
      5 C          62.4394   86.3264   11.4102 C.ar    1  UNL1        0.0352
      6 C          61.6294   86.6622   10.1931 C.ar    1  UNL1        0.1336
      7 O          61.0153   85.5654    9.3748 O.3     1  UNL1       -0.5055
      8 C          61.4336   88.0950    9.7945 C.ar    1  UNL1        0.0366
      9 C          62.0477   89.1919   10.6128 C.ar    1  UNL1        0.0031
     10 C          62.8576   88.8560   11.8299 C.ar    1  UNL1        0.0002
     11 C          63.4717   89.9529   12.6482 C.ar    1  UNL1        0.0000
     12 H          61.1376   84.6704    9.6238 H       1  UNL1        0.2922
     13 O          68.0992   93.0561   14.6391 O.3     1  UNL1       -0.5055
     14 C          66.8046   92.4335   15.0705 C.ar    1  UNL1        0.1337
     15 C          66.1240   92.9078   16.3203 C.ar    1  UNL1        0.0366
     16 C          64.8293   92.2852   16.7518 C.ar    1  UNL1        0.0031
     17 C          64.2152   91.1882   15.9334 C.ar    1  UNL1        0.0002
     18 C          64.8958   90.7140   14.6837 C.ar    1  UNL1        0.0030
     19 C          66.1904   91.3366   14.2522 C.ar    1  UNL1        0.0366
     20 H          68.4829   93.7413   15.1503 H       1  UNL1        0.2922
     21 C          62.6352   84.8937   11.8089 C.ar    1  UNL1        0.0221
     22 C          63.2359   83.9205   10.8383 C.ar    1  UNL1        0.0032
     23 C          63.4317   82.4877   11.2371 C.ar    1  UNL1        0.0207
     24 C          63.0269   82.0282   12.6063 C.ar    1  UNL1        0.0989
     25 N          62.4262   83.0015   13.5769 N.ar    1  UNL1       -0.2423
     26 C          62.2303   84.4341   13.1782 C.ar    1  UNL1        0.0989
@<TRIPOS>BOND
     1    13    14    1
     2    14    15   ar
     3    15    16   ar
     4    16    17   ar
     5    17    18   ar
     6    18     1    1
     7     1     2   ar
     8     2     3   ar
     9     3     4   ar
    10     4     5   ar
    11     5    21    1
    12    21    22   ar
    13    22    23   ar
    14    23    24   ar
    15    24    25   ar
    16    25    26   ar
    17     5     6   ar
    18     6     7    1
    19     6     8   ar
    20     8     9   ar
    21     9    10   ar
    22    10    11   ar
    23    18    19   ar
    24    19    14   ar
    25    11     1   ar
    26    10     4   ar
    27    26    21   ar
    28    13    20    1
    29     7    12    1
@<TRIPOS>MOLECULE
*****
 26 29 0 0 0
SMALL
GASTEIGER

@<TRIPOS>ATOM
      1 C          64.5078   89.4688   14.1254 C.ar    1  UNL1        0.0001
      2 C          63.6687   89.7236   12.9085 C.ar    1  UNL1        0.0000
      3 C          63.0307   88.5758   12.1837 C.ar    1  UNL1        0.0001
      4 C          63.2318   87.1731   12.6758 C.ar    1  UNL1        0.0030
      5 C          62.5938   86.0253   11.9509 C.ar    1  UNL1        0.0352
      6 C          62.7949   84.6226   12.4430 C.ar    1  UNL1        0.1336
      7 O          62.1569   83.4748   11.7182 O.3     1  UNL1       -0.5055
      8 C          63.6341   84.3679   13.6600 C.ar    1  UNL1        0.0366
      9 C          64.2720   85.5157   14.3848 C.ar    1  UNL1        0.0031
     10 C          64.0709   86.9183   13.8927 C.ar    1  UNL1        0.0002
     11 C          64.7089   88.0662   14.6175 C.ar    1  UNL1        0.0000
     12 H          61.6327   83.6339   10.9580 H       1  UNL1        0.2922
     13 O          64.2251   93.2904   17.6348 O.3     1  UNL1       -0.5055
     14 C          65.0045   92.5275   16.6050 C.ar    1  UNL1        0.1337
     15 C          66.4219   92.9124   16.3000 C.ar    1  UNL1        0.0366
     16 C          67.2012   92.1494   15.2702 C.ar    1  UNL1        0.0031
     17 C          66.5632   91.0016   14.5453 C.ar    1  UNL1        0.0002
     18 C          65.1459   90.6167   14.8503 C.ar    1  UNL1        0.0030
     19 C          64.3665   91.3796   15.8801 C.ar    1  UNL1        0.0366
     20 H          64.6237   94.0074   18.0876 H       1  UNL1        0.2922
     21 C          61.7547   86.2801   10.7340 C.ar    1  UNL1        0.0221
     22 C          60.7426   87.3872   10.7392 C.ar    1  UNL1        0.0032
     23 C          59.9035   87.6420    9.5222 C.ar    1  UNL1        0.0207
     24 C          60.0765   86.7896    8.3001 C.ar    1  UNL1        0.0989
     25 N          61.0885   85.6825    8.2949 N.ar    1  UNL1       -0.2423
     26 C          61.9276   85.4277    9.5118 C.ar    1  UNL1        0.0989
@<TRIPOS>BOND
     1    13    14    1
     2    14    15   ar
     3    15    16   ar
     4    16    17   ar
     5    17    18   ar
     6    18     1    1
     7     1     2   ar
     8     2     3   ar
     9     3     4   ar
    10     4     5   ar
    11     5    21    1
    12    21    22   ar
    13    22    23   ar
    14    23    24   ar
    15    24    25   ar
    16    25    26   ar
    17     5     6   ar
    18     6     7    1
    19     6     8   ar
    20     8     9   ar
    21     9    10   ar
    22    10    11   ar
    23    18    19   ar
    24    19    14   ar
    25    11     1   ar
    26    10     4   ar
    27    26    21   ar
    28    13    20    1
    29     7    12    1
@<TRIPOS>MOLECULE
*****
 26 29 0 0 0
SMALL
GASTEIGER

@<TRIPOS>ATOM
      1 C          62.3531   86.1168   10.5731 C.ar    1  UNL1        0.0001
      2 C          62.4657   87.5352   11.0479 C.ar    1  UNL1        0.0000
      3 C          62.9548   87.8248   12.4360 C.ar    1  UNL1        0.0001
      4 C          63.3314   86.6960   13.3493 C.ar    1  UNL1        0.0030
      5 C          63.8205   86.9857   14.7374 C.ar    1  UNL1        0.0352
      6 C          64.1970   85.8569   15.6507 C.ar    1  UNL1        0.1336
      7 O          64.6861   86.1465   17.0388 O.3     1  UNL1       -0.5055
      8 C          64.0844   84.4385   15.1758 C.ar    1  UNL1        0.0366
      9 C          63.5953   84.1489   13.7877 C.ar    1  UNL1        0.0031
     10 C          63.2188   85.2777   12.8744 C.ar    1  UNL1        0.0002
     11 C          62.7297   84.9881   11.4864 C.ar    1  UNL1        0.0000
     12 H          64.7565   87.0325   17.3354 H       1  UNL1        0.2922
     13 O          58.5885   86.3097    6.9967 O.3     1  UNL1       -0.5055
     14 C          59.9817   85.9236    7.3967 C.ar    1  UNL1        0.1337
     15 C          60.8857   85.2479    6.4087 C.ar    1  UNL1        0.0366
     16 C          62.2789   84.8618    6.8088 C.ar    1  UNL1        0.0031
     17 C          62.7680   85.1515    8.1969 C.ar    1  UNL1        0.0002
     18 C          61.8640   85.8272    9.1849 C.ar    1  UNL1        0.0030
     19 C          60.4708   86.2132    8.7848 C.ar    1  UNL1        0.0366
     20 H          58.2830   86.1287    6.1296 H       1  UNL1        0.2922
     21 C          63.9331   88.4041   15.2122 C.ar    1  UNL1        0.0221
     22 C          64.8309   89.3667   14.4930 C.ar    1  UNL1        0.0032
     23 C          64.9434   90.7852   14.9679 C.ar    1  UNL1        0.0207
     24 C          64.1582   91.2409   16.1619 C.ar    1  UNL1        0.0989
     25 N          63.2604   90.2782   16.8811 N.ar    1  UNL1       -0.2423
     26 C          63.1478   88.8599   16.4063 C.ar    1  UNL1        0.0989
@<TRIPOS>BOND
     1    13    14    1
     2    14    15   ar
     3    15    16   ar
     4    16    17   ar
     5    17    18   ar
     6    18     1    1
     7     1     2   ar
     8     2     3   ar
     9     3     4   ar
    10     4     5   ar
    11     5    21    1
    12    21    22   ar
    13    22    23   ar
    14    23    24   ar
    15    24    25   ar
    16    25    26   ar
    17     5     6   ar
    18     6     7    1
    19     6     8   ar
    20     8     9   ar
    21     9    10   ar
    22    10    11   ar
    23    18    19   ar
    24    19    14   ar
    25    11     1   ar
    26    10     4   ar
    27    26    21   ar
    28    13    20    1
    29     7    12    1
