@<TRIPOS>MOLECULE
*****
 34 37 0 0 0
SMALL
GASTEIGER

@<TRIPOS>ATOM
      1 C          62.5063   88.5245   11.8297 C.3     1  UNL1        0.1787
      2 C          66.5189   93.1880   14.8957 C.3     1  UNL1        0.0897
      3 N          65.6656   92.3404   13.9993 N.3     1  UNL1       -0.2686
      4 C          65.4119   92.7659   12.5835 C.3     1  UNL1        0.0939
      5 C          64.5586   91.9182   11.6872 C.3     1  UNL1        0.1108
      6 N          63.9591   90.6452   12.2066 N.am    1  UNL1       -0.2753
      7 C          63.1058   89.7976   11.3103 C.2     1  UNL1        0.2462
      8 O          62.8520   90.2230    9.8945 O.2     1  UNL1       -0.2730
      9 C          64.2129   90.2198   13.6224 C.3     1  UNL1        0.1108
     10 C          65.0661   91.0674   14.5188 C.3     1  UNL1        0.0939
     11 N          63.3522   87.5593   12.6063 N.am    1  UNL1       -0.2961
     12 C          62.9538   86.1160   12.6950 C.2     1  UNL1        0.2257
     13 O          61.7096   85.6377   12.0072 O.2     1  UNL1       -0.2748
     14 H          64.1688   87.8732   13.0578 H       1  UNL1        0.1499
     15 C          63.7996   85.1508   13.4716 C.3     1  UNL1        0.0884
     16 C          64.7143   84.6160   14.5334 C.3     1  UNL1        0.0135
     17 C          64.2917   86.0551   14.5625 C.3     1  UNL1        0.0135
     18 C          63.6012   83.9114   12.6503 C.ar    1  UNL1       -0.0040
     19 C          64.2569   83.7889   11.3068 C.ar    1  UNL1       -0.0021
     20 C          64.0584   82.5494   10.4856 C.ar    1  UNL1        0.0111
     21 C          63.2042   81.4325   11.0079 C.ar    1  UNL1        0.0585
     22 CL         63.0057   80.1931   10.1866 Cl      1  UNL1       -0.0822
     23 C          62.5485   81.5550   12.3514 C.ar    1  UNL1        0.0225
     24 C          62.7470   82.7944   13.1726 C.ar    1  UNL1        0.0550
     25 CL         62.0913   82.9169   14.5161 Cl      1  UNL1       -0.0825
     26 C          61.0609   88.2166   11.5726 C.3     1  UNL1        0.1714
     27 O          60.4691   88.4721   10.2181 O.3     1  UNL1       -0.3467
     28 C          59.9005   87.3354    9.4215 C.3     1  UNL1        0.1687
     29 C          60.8094   86.4567    8.6143 C.ar    1  UNL1        0.0073
     30 C          62.2486   86.3030    9.0085 C.ar    1  UNL1       -0.0019
     31 C          63.1576   85.4243    8.2013 C.ar    1  UNL1       -0.0002
     32 C          62.6275   84.6992    6.9999 C.ar    1  UNL1       -0.0000
     33 C          61.1884   84.8528    6.6058 C.ar    1  UNL1       -0.0002
     34 C          60.2793   85.7316    7.4130 C.ar    1  UNL1       -0.0019
@<TRIPOS>BOND
     1     2     3    1
     2     3     4    1
     3     4     5    1
     4     5     6    1
     5     6     7   am
     6     7     8    2
     7     7     1    1
     8     1    26    1
     9    26    27    1
    10    27    28    1
    11    28    29    1
    12    29    30   ar
    13    30    31   ar
    14    31    32   ar
    15    32    33   ar
    16    33    34   ar
    17     1    11    1
    18    11    12   am
    19    12    13    2
    20    12    15    1
    21    15    18    1
    22    18    19   ar
    23    19    20   ar
    24    20    21   ar
    25    21    22    1
    26    21    23   ar
    27    23    24   ar
    28    24    25    1
    29    15    16    1
    30    16    17    1
    31     6     9    1
    32     9    10    1
    33    10     3    1
    34    34    29   ar
    35    17    15    1
    36    24    18   ar
    37    11    14    1
@<TRIPOS>MOLECULE
*****
 34 37 0 0 0
SMALL
GASTEIGER

@<TRIPOS>ATOM
      1 C          63.9637   90.2539   14.1908 C.3     1  UNL1        0.1787
      2 C          63.9697   83.4823   15.3719 C.3     1  UNL1        0.0897
      3 N          63.8831   84.9798   15.3852 N.3     1  UNL1       -0.2686
      4 C          63.4564   85.6954   16.6324 C.3     1  UNL1        0.0939
      5 C          63.3698   87.1928   16.6457 C.3     1  UNL1        0.1108
      6 N          63.7101   87.9747   15.4116 N.am    1  UNL1       -0.2753
      7 C          63.6235   89.4721   15.4249 C.2     1  UNL1        0.2462
      8 O          63.1968   90.1877   16.6721 O.2     1  UNL1       -0.2730
      9 C          64.1368   87.2591   14.1644 C.3     1  UNL1        0.1108
     10 C          64.2234   85.7616   14.1511 C.3     1  UNL1        0.0939
     11 N          65.3510   90.7927   14.0030 N.am    1  UNL1       -0.2961
     12 C          65.8211   91.9567   14.8240 C.2     1  UNL1        0.2257
     13 O          64.9040   92.5819   15.8330 O.2     1  UNL1       -0.2748
     14 H          65.9530   90.3824   13.3408 H       1  UNL1        0.1499
     15 C          67.2084   92.4954   14.6362 C.3     1  UNL1        0.0884
     16 C          68.6297   92.8663   14.9403 C.3     1  UNL1        0.0135
     17 C          67.7881   92.1992   15.9876 C.3     1  UNL1        0.0135
     18 C          67.1104   92.9788   13.2196 C.ar    1  UNL1       -0.0040
     19 C          66.2393   94.1536   12.8865 C.ar    1  UNL1       -0.0021
     20 C          66.1414   94.6369   11.4698 C.ar    1  UNL1        0.0111
     21 C          66.9146   93.9453   10.3863 C.ar    1  UNL1        0.0585
     22 CL         66.8166   94.4287    8.9696 Cl      1  UNL1       -0.0822
     23 C          67.7857   92.7705   10.7195 C.ar    1  UNL1        0.0225
     24 C          67.8836   92.2873   12.1361 C.ar    1  UNL1        0.0550
     25 CL         68.7547   91.1125   12.4692 Cl      1  UNL1       -0.0825
     26 C          62.9167   90.4971   13.1446 C.3     1  UNL1        0.1714
     27 O          62.4515   89.3686   12.2727 O.3     1  UNL1       -0.3467
     28 C          62.4314   89.5319   10.7817 C.3     1  UNL1        0.1687
     29 C          61.6533   88.5710    9.9324 C.ar    1  UNL1        0.0073
     30 C          61.9980   87.1112    9.9435 C.ar    1  UNL1       -0.0019
     31 C          61.2199   86.1504    9.0942 C.ar    1  UNL1       -0.0002
     32 C          60.0972   86.6493    8.2338 C.ar    1  UNL1       -0.0000
     33 C          59.7524   88.1091    8.2226 C.ar    1  UNL1       -0.0002
     34 C          60.5305   89.0700    9.0720 C.ar    1  UNL1       -0.0019
@<TRIPOS>BOND
     1     2     3    1
     2     3     4    1
     3     4     5    1
     4     5     6    1
     5     6     7   am
     6     7     8    2
     7     7     1    1
     8     1    26    1
     9    26    27    1
    10    27    28    1
    11    28    29    1
    12    29    30   ar
    13    30    31   ar
    14    31    32   ar
    15    32    33   ar
    16    33    34   ar
    17     1    11    1
    18    11    12   am
    19    12    13    2
    20    12    15    1
    21    15    18    1
    22    18    19   ar
    23    19    20   ar
    24    20    21   ar
    25    21    22    1
    26    21    23   ar
    27    23    24   ar
    28    24    25    1
    29    15    16    1
    30    16    17    1
    31     6     9    1
    32     9    10    1
    33    10     3    1
    34    34    29   ar
    35    17    15    1
    36    24    18   ar
    37    11    14    1
@<TRIPOS>MOLECULE
*****
 34 37 0 0 0
SMALL
GASTEIGER

@<TRIPOS>ATOM
      1 C          62.2440   87.0674   11.7155 C.3     1  UNL1        0.1787
      2 C          61.8373   84.2197    5.4725 C.3     1  UNL1        0.0897
      3 N          61.6621   84.9330    6.7803 N.3     1  UNL1       -0.2686
      4 C          60.3795   85.6521    7.0765 C.3     1  UNL1        0.0939
      5 C          60.2043   86.3654    8.3843 C.3     1  UNL1        0.1108
      6 N          61.3117   86.3597    9.3960 N.am    1  UNL1       -0.2753
      7 C          61.1365   87.0731   10.7038 C.2     1  UNL1        0.2462
      8 O          59.8539   87.7921   11.0000 O.2     1  UNL1       -0.2730
      9 C          62.5944   85.6407    9.0998 C.3     1  UNL1        0.1108
     10 C          62.7696   84.9273    7.7920 C.3     1  UNL1        0.0939
     11 N          62.5789   85.8053   12.4538 N.am    1  UNL1       -0.2961
     12 C          63.5449   85.8412   13.6008 C.2     1  UNL1        0.2257
     13 O          64.1759   87.1392   14.0095 O.2     1  UNL1       -0.2748
     14 H          62.1647   84.9534   12.1855 H       1  UNL1        0.1499
     15 C          63.8798   84.5791   14.3391 C.3     1  UNL1        0.0884
     16 C          64.2860   83.6659   15.4575 C.3     1  UNL1        0.0135
     17 C          64.2014   85.1454   15.6903 C.3     1  UNL1        0.0135
     18 C          63.6745   83.5746   13.2441 C.ar    1  UNL1       -0.0040
     19 C          64.5281   83.6236   12.0116 C.ar    1  UNL1       -0.0021
     20 C          64.3227   82.6191   10.9167 C.ar    1  UNL1        0.0111
     21 C          63.2638   81.5656   11.0543 C.ar    1  UNL1        0.0585
     22 CL         63.0585   80.5611    9.9593 Cl      1  UNL1       -0.0822
     23 C          62.4103   81.5167   12.2868 C.ar    1  UNL1        0.0225
     24 C          62.6156   82.5211   13.3817 C.ar    1  UNL1        0.0550
     25 CL         61.7621   82.4721   14.6142 Cl      1  UNL1       -0.0825
     26 C          63.0165   88.3237   11.9889 C.3     1  UNL1        0.1714
     27 O          62.3470   89.4838   12.6643 O.3     1  UNL1       -0.3467
     28 C          63.0354   90.1945   13.7917 C.3     1  UNL1        0.1687
     29 C          64.3200   90.9279   13.5428 C.ar    1  UNL1        0.0073
     30 C          64.4899   91.7405   12.2935 C.ar    1  UNL1       -0.0019
     31 C          65.7745   92.4739   12.0446 C.ar    1  UNL1       -0.0002
     32 C          66.8893   92.3947   13.0451 C.ar    1  UNL1       -0.0000
     33 C          66.7195   91.5821   14.2944 C.ar    1  UNL1       -0.0002
     34 C          65.4348   90.8487   14.5433 C.ar    1  UNL1       -0.0019
@<TRIPOS>BOND
     1     2     3    1
     2     3     4    1
     3     4     5    1
     4     5     6    1
     5     6     7   am
     6     7     8    2
     7     7     1    1
     8     1    26    1
     9    26    27    1
    10    27    28    1
    11    28    29    1
    12    29    30   ar
    13    30    31   ar
    14    31    32   ar
    15    32    33   ar
    16    33    34   ar
    17     1    11    1
    18    11    12   am
    19    12    13    2
    20    12    15    1
    21    15    18    1
    22    18    19   ar
    23    19    20   ar
    24    20    21   ar
    25    21    22    1
    26    21    23   ar
    27    23    24   ar
    28    24    25    1
    29    15    16    1
    30    16    17    1
    31     6     9    1
    32     9    10    1
    33    10     3    1
    34    34    29   ar
    35    17    15    1
    36    24    18   ar
    37    11    14    1
@<TRIPOS>MOLECULE
*****
 34 37 0 0 0
SMALL
GASTEIGER

@<TRIPOS>ATOM
      1 C          63.6886   88.3693   13.8881 C.3     1  UNL1        0.1787
      2 C          67.7569   93.5658   15.8106 C.3     1  UNL1        0.0897
      3 N          66.6777   92.5538   15.5630 N.3     1  UNL1       -0.2686
      4 C          65.3502   92.6902   16.2478 C.3     1  UNL1        0.0939
      5 C          64.2711   91.6782   16.0003 C.3     1  UNL1        0.1108
      6 N          64.5194   90.5298   15.0680 N.am    1  UNL1       -0.2753
      7 C          63.4403   89.5178   14.8204 C.2     1  UNL1        0.2462
      8 O          62.1127   89.6542   15.5052 O.2     1  UNL1       -0.2730
      9 C          65.8470   90.3933   14.3832 C.3     1  UNL1        0.1108
     10 C          66.9261   91.4053   14.6307 C.3     1  UNL1        0.0939
     11 N          64.2231   87.0728   14.4208 N.am    1  UNL1       -0.2961
     12 C          63.6634   85.7716   13.9274 C.2     1  UNL1        0.2257
     13 O          62.5693   85.7668   12.9012 O.2     1  UNL1       -0.2748
     14 H          64.9411   87.0760   15.0943 H       1  UNL1        0.1499
     15 C          64.1978   84.4752   14.4600 C.3     1  UNL1        0.0884
     16 C          64.8433   83.4935   15.3926 C.3     1  UNL1        0.0135
     17 C          64.7032   84.9314   15.7966 C.3     1  UNL1        0.0135
     18 C          63.8779   83.5689   13.3084 C.ar    1  UNL1       -0.0040
     19 C          64.7004   83.6292   12.0555 C.ar    1  UNL1       -0.0021
     20 C          64.3804   82.7228   10.9039 C.ar    1  UNL1        0.0111
     21 C          63.2380   81.7562   11.0052 C.ar    1  UNL1        0.0585
     22 CL         62.9180   80.8498    9.8536 Cl      1  UNL1       -0.0822
     23 C          62.4155   81.6958   12.2582 C.ar    1  UNL1        0.0225
     24 C          62.7354   82.6021   13.4097 C.ar    1  UNL1        0.0550
     25 CL         61.9129   82.5418   14.6627 Cl      1  UNL1       -0.0825
     26 C          63.4026   88.5172   12.4231 C.3     1  UNL1        0.1714
     27 O          62.0406   88.9470   11.9644 O.3     1  UNL1       -0.3467
     28 C          61.7983   89.2507   10.5157 C.3     1  UNL1        0.1687
     29 C          61.3231   88.1688    9.5918 C.ar    1  UNL1        0.0073
     30 C          62.1699   86.9519    9.3636 C.ar    1  UNL1       -0.0019
     31 C          61.6947   85.8700    8.4397 C.ar    1  UNL1       -0.0002
     32 C          60.3727   86.0050    7.7439 C.ar    1  UNL1       -0.0000
     33 C          59.5259   87.2218    7.9721 C.ar    1  UNL1       -0.0002
     34 C          60.0011   88.3038    8.8960 C.ar    1  UNL1       -0.0019
@<TRIPOS>BOND
     1     2     3    1
     2     3     4    1
     3     4     5    1
     4     5     6    1
     5     6     7   am
     6     7     8    2
     7     7     1    1
     8     1    26    1
     9    26    27    1
    10    27    28    1
    11    28    29    1
    12    29    30   ar
    13    30    31   ar
    14    31    32   ar
    15    32    33   ar
    16    33    34   ar
    17     1    11    1
    18    11    12   am
    19    12    13    2
    20    12    15    1
    21    15    18    1
    22    18    19   ar
    23    19    20   ar
    24    20    21   ar
    25    21    22    1
    26    21    23   ar
    27    23    24   ar
    28    24    25    1
    29    15    16    1
    30    16    17    1
    31     6     9    1
    32     9    10    1
    33    10     3    1
    34    34    29   ar
    35    17    15    1
    36    24    18   ar
    37    11    14    1
@<TRIPOS>MOLECULE
*****
 34 37 0 0 0
SMALL
GASTEIGER

@<TRIPOS>ATOM
      1 C          63.8989   88.4714   14.0407 C.3     1  UNL1        0.1787
      2 C          67.7348   93.8751   15.8672 C.3     1  UNL1        0.0897
      3 N          66.7405   92.7652   15.6957 N.3     1  UNL1       -0.2686
      4 C          65.6048   92.6192   16.6646 C.3     1  UNL1        0.0939
      5 C          64.6105   91.5093   16.4931 C.3     1  UNL1        0.1108
      6 N          64.7519   90.5453   15.3527 N.am    1  UNL1       -0.2753
      7 C          63.7576   89.4354   15.1812 C.2     1  UNL1        0.2462
      8 O          62.6219   89.2894   16.1501 O.2     1  UNL1       -0.2730
      9 C          65.8875   90.6913   14.3837 C.3     1  UNL1        0.1108
     10 C          66.8818   91.8012   14.5552 C.3     1  UNL1        0.0939
     11 N          63.8977   88.9756   12.6279 N.am    1  UNL1       -0.2961
     12 C          62.6654   89.6162   12.0613 C.2     1  UNL1        0.2257
     13 O          61.4343   89.7526   12.9074 O.2     1  UNL1       -0.2748
     14 H          64.7057   88.8861   12.0726 H       1  UNL1        0.1499
     15 C          62.6641   90.1204   10.6485 C.3     1  UNL1        0.0884
     16 C          62.9185   91.0131    9.4703 C.3     1  UNL1        0.0135
     17 C          63.3999   91.4144   10.8332 C.3     1  UNL1        0.0135
     18 C          61.9279   89.0014    9.9734 C.ar    1  UNL1       -0.0040
     19 C          62.6568   87.7476    9.5902 C.ar    1  UNL1       -0.0021
     20 C          61.9204   86.6286    8.9150 C.ar    1  UNL1        0.0111
     21 C          60.4553   86.7635    8.6231 C.ar    1  UNL1        0.0585
     22 CL         59.7191   85.6444    7.9479 Cl      1  UNL1       -0.0822
     23 C          59.7265   88.0172    9.0063 C.ar    1  UNL1        0.0225
     24 C          60.4628   89.1362    9.6814 C.ar    1  UNL1        0.0550
     25 CL         59.7339   90.3899   10.0646 Cl      1  UNL1       -0.0825
     26 C          64.0415   87.0032   14.3129 C.3     1  UNL1        0.1714
     27 O          63.0265   86.0387   13.7750 O.3     1  UNL1       -0.3467
     28 C          63.0901   85.6055   12.3403 C.3     1  UNL1        0.1687
     29 C          63.1190   84.1453   11.9983 C.ar    1  UNL1        0.0073
     30 C          62.5295   83.1416   12.9444 C.ar    1  UNL1       -0.0019
     31 C          62.5583   81.6814   12.6024 C.ar    1  UNL1       -0.0002
     32 C          63.1768   81.2249   11.3143 C.ar    1  UNL1       -0.0000
     33 C          63.7663   82.2285   10.3682 C.ar    1  UNL1       -0.0002
     34 C          63.7374   83.6888   10.7102 C.ar    1  UNL1       -0.0019
@<TRIPOS>BOND
     1     2     3    1
     2     3     4    1
     3     4     5    1
     4     5     6    1
     5     6     7   am
     6     7     8    2
     7     7     1    1
     8     1    26    1
     9    26    27    1
    10    27    28    1
    11    28    29    1
    12    29    30   ar
    13    30    31   ar
    14    31    32   ar
    15    32    33   ar
    16    33    34   ar
    17     1    11    1
    18    11    12   am
    19    12    13    2
    20    12    15    1
    21    15    18    1
    22    18    19   ar
    23    19    20   ar
    24    20    21   ar
    25    21    22    1
    26    21    23   ar
    27    23    24   ar
    28    24    25    1
    29    15    16    1
    30    16    17    1
    31     6     9    1
    32     9    10    1
    33    10     3    1
    34    34    29   ar
    35    17    15    1
    36    24    18   ar
    37    11    14    1
@<TRIPOS>MOLECULE
*****
 34 37 0 0 0
SMALL
GASTEIGER

@<TRIPOS>ATOM
      1 C          64.1018   89.2477   14.2430 C.3     1  UNL1        0.1787
      2 C          60.1738   89.1523    8.6028 C.3     1  UNL1        0.0897
      3 N          60.7902   89.2459    9.9671 N.3     1  UNL1       -0.2686
      4 C          59.9442   89.6186   11.1484 C.3     1  UNL1        0.0939
      5 C          60.5606   89.7122   12.5126 C.3     1  UNL1        0.1108
      6 N          62.0230   89.4332   12.6957 N.am    1  UNL1       -0.2753
      7 C          62.6394   89.5268   14.0600 C.2     1  UNL1        0.2462
      8 O          61.7934   89.8994   15.2412 O.2     1  UNL1       -0.2730
      9 C          62.8689   89.0605   11.5144 C.3     1  UNL1        0.1108
     10 C          62.2525   88.9669   10.1501 C.3     1  UNL1        0.0939
     11 N          65.0497   90.3736   14.5324 N.am    1  UNL1       -0.2961
     12 C          65.2450   91.4674   13.5246 C.2     1  UNL1        0.2257
     13 O          64.4924   91.4352   12.2275 O.2     1  UNL1       -0.2748
     14 H          65.5437   90.3947   15.3837 H       1  UNL1        0.1499
     15 C          66.1930   92.5933   13.8140 C.3     1  UNL1        0.0884
     16 C          67.0157   93.5793   14.5892 C.3     1  UNL1        0.0135
     17 C          66.1615   92.5814   15.3136 C.3     1  UNL1        0.0135
     18 C          66.5536   92.9962   12.4149 C.ar    1  UNL1       -0.0040
     19 C          65.7512   94.0470   11.7065 C.ar    1  UNL1       -0.0021
     20 C          66.1119   94.4498   10.3073 C.ar    1  UNL1        0.0111
     21 C          67.2750   93.8017    9.6165 C.ar    1  UNL1        0.0585
     22 CL         67.6357   94.2046    8.2173 Cl      1  UNL1       -0.0822
     23 C          68.0774   92.7508   10.3249 C.ar    1  UNL1        0.0225
     24 C          67.7167   92.3481   11.7240 C.ar    1  UNL1        0.0550
     25 CL         68.5191   91.2972   12.4324 Cl      1  UNL1       -0.0825
     26 C          64.6162   87.8427   14.1367 C.3     1  UNL1        0.1714
     27 O          63.6802   86.6852   14.3218 O.3     1  UNL1       -0.3467
     28 C          64.2267   85.3139   14.5882 C.3     1  UNL1        0.1687
     29 C          63.5426   84.1092   14.0133 C.ar    1  UNL1        0.0073
     30 C          62.7429   83.2047   14.9036 C.ar    1  UNL1       -0.0019
     31 C          62.0588   82.0000   14.3288 C.ar    1  UNL1       -0.0002
     32 C          62.1742   81.6997   12.8637 C.ar    1  UNL1       -0.0000
     33 C          62.9738   82.6041   11.9734 C.ar    1  UNL1       -0.0002
     34 C          63.6580   83.8089   12.5482 C.ar    1  UNL1       -0.0019
@<TRIPOS>BOND
     1     2     3    1
     2     3     4    1
     3     4     5    1
     4     5     6    1
     5     6     7   am
     6     7     8    2
     7     7     1    1
     8     1    26    1
     9    26    27    1
    10    27    28    1
    11    28    29    1
    12    29    30   ar
    13    30    31   ar
    14    31    32   ar
    15    32    33   ar
    16    33    34   ar
    17     1    11    1
    18    11    12   am
    19    12    13    2
    20    12    15    1
    21    15    18    1
    22    18    19   ar
    23    19    20   ar
    24    20    21   ar
    25    21    22    1
    26    21    23   ar
    27    23    24   ar
    28    24    25    1
    29    15    16    1
    30    16    17    1
    31     6     9    1
    32     9    10    1
    33    10     3    1
    34    34    29   ar
    35    17    15    1
    36    24    18   ar
    37    11    14    1
@<TRIPOS>MOLECULE
*****
 34 37 0 0 0
SMALL
GASTEIGER

@<TRIPOS>ATOM
      1 C          63.1673   88.3668   12.6186 C.3     1  UNL1        0.1787
      2 C          60.5155   85.3745    7.0272 C.3     1  UNL1        0.0897
      3 N          60.8694   86.2013    8.2276 N.3     1  UNL1       -0.2686
      4 C          59.9876   87.3429    8.6386 C.3     1  UNL1        0.0939
      5 C          60.3416   88.1697    9.8390 C.3     1  UNL1        0.1108
      6 N          61.5774   87.8548   10.6286 N.am    1  UNL1       -0.2753
      7 C          61.9314   88.6816   11.8291 C.2     1  UNL1        0.2462
      8 O          61.0495   89.8232   12.2400 O.2     1  UNL1       -0.2730
      9 C          62.4593   86.7132   10.2176 C.3     1  UNL1        0.1108
     10 C          62.1053   85.8864    9.0172 C.3     1  UNL1        0.0939
     11 N          64.0220   89.4794   13.1493 N.am    1  UNL1       -0.2961
     12 C          63.6592   90.1541   14.4389 C.2     1  UNL1        0.2257
     13 O          62.4416   89.7163   15.1978 O.2     1  UNL1       -0.2748
     14 H          64.8211   89.7668   12.6513 H       1  UNL1        0.1499
     15 C          64.5139   91.2668   14.9696 C.3     1  UNL1        0.0884
     16 C          65.1176   92.2424   15.9358 C.3     1  UNL1        0.0135
     17 C          64.0881   91.2588   16.4079 C.3     1  UNL1        0.0135
     18 C          65.2363   91.6610   13.7156 C.ar    1  UNL1       -0.0040
     19 C          64.4601   91.9965   12.4767 C.ar    1  UNL1       -0.0021
     20 C          65.1828   92.3908   11.2227 C.ar    1  UNL1        0.0111
     21 C          66.6815   92.4494   11.2076 C.ar    1  UNL1        0.0585
     22 CL         67.4041   92.8436    9.9536 Cl      1  UNL1       -0.0822
     23 C          67.4577   92.1138   12.4466 C.ar    1  UNL1        0.0225
     24 C          66.7351   91.7196   13.7005 C.ar    1  UNL1        0.0550
     25 CL         67.5113   91.3840   14.9394 Cl      1  UNL1       -0.0825
     26 C          63.5485   86.9393   12.8774 C.3     1  UNL1        0.1714
     27 O          63.7762   86.4668   14.2828 O.3     1  UNL1       -0.3467
     28 C          64.3700   85.1120   14.5317 C.3     1  UNL1        0.1687
     29 C          63.6904   83.8858   13.9982 C.ar    1  UNL1        0.0073
     30 C          62.6513   83.1854   14.8228 C.ar    1  UNL1       -0.0019
     31 C          61.9718   81.9593   14.2894 C.ar    1  UNL1       -0.0002
     32 C          62.3311   81.4334   12.9313 C.ar    1  UNL1       -0.0000
     33 C          63.3701   82.1338   12.1067 C.ar    1  UNL1       -0.0002
     34 C          64.0498   83.3600   12.6402 C.ar    1  UNL1       -0.0019
@<TRIPOS>BOND
     1     2     3    1
     2     3     4    1
     3     4     5    1
     4     5     6    1
     5     6     7   am
     6     7     8    2
     7     7     1    1
     8     1    26    1
     9    26    27    1
    10    27    28    1
    11    28    29    1
    12    29    30   ar
    13    30    31   ar
    14    31    32   ar
    15    32    33   ar
    16    33    34   ar
    17     1    11    1
    18    11    12   am
    19    12    13    2
    20    12    15    1
    21    15    18    1
    22    18    19   ar
    23    19    20   ar
    24    20    21   ar
    25    21    22    1
    26    21    23   ar
    27    23    24   ar
    28    24    25    1
    29    15    16    1
    30    16    17    1
    31     6     9    1
    32     9    10    1
    33    10     3    1
    34    34    29   ar
    35    17    15    1
    36    24    18   ar
    37    11    14    1
@<TRIPOS>MOLECULE
*****
 34 37 0 0 0
SMALL
GASTEIGER

@<TRIPOS>ATOM
      1 C          63.4599   90.2411   14.0749 C.3     1  UNL1        0.1787
      2 C          66.7114   94.3582    9.6334 C.3     1  UNL1        0.0897
      3 N          66.1435   93.6070   10.8010 N.3     1  UNL1       -0.2686
      4 C          66.5554   93.9683   12.1973 C.3     1  UNL1        0.0939
      5 C          65.9875   93.2171   13.3649 C.3     1  UNL1        0.1108
      6 N          65.0077   92.1047   13.1361 N.am    1  UNL1       -0.2753
      7 C          64.4398   91.3535   14.3037 C.2     1  UNL1        0.2462
      8 O          64.8517   91.7147   15.7000 O.2     1  UNL1       -0.2730
      9 C          64.5957   91.7434   11.7398 C.3     1  UNL1        0.1108
     10 C          65.1636   92.4946   10.5722 C.3     1  UNL1        0.0939
     11 N          63.1140   89.3043   15.1943 N.am    1  UNL1       -0.2961
     12 C          63.6825   87.9164   15.2136 C.2     1  UNL1        0.2257
     13 O          64.5970   87.4651   14.1136 O.2     1  UNL1       -0.2748
     14 H          62.5137   89.6005   15.9163 H       1  UNL1        0.1499
     15 C          63.3365   86.9796   16.3329 C.3     1  UNL1        0.0884
     16 C          62.9391   86.4996   17.6973 C.3     1  UNL1        0.0135
     17 C          63.0682   87.9696   17.4274 C.3     1  UNL1        0.0135
     18 C          63.4847   85.6645   15.6270 C.ar    1  UNL1       -0.0040
     19 C          64.8369   85.2105   15.1629 C.ar    1  UNL1       -0.0021
     20 C          64.9850   83.8952   14.4570 C.ar    1  UNL1        0.0111
     21 C          63.7809   83.0341   14.2152 C.ar    1  UNL1        0.0585
     22 CL         63.9290   81.7188   13.5092 Cl      1  UNL1       -0.0822
     23 C          62.4287   83.4881   14.6793 C.ar    1  UNL1        0.0225
     24 C          62.2806   84.8032   15.3852 C.ar    1  UNL1        0.0550
     25 CL         60.9284   85.2572   15.8494 Cl      1  UNL1       -0.0825
     26 C          62.8260   90.0653   12.7269 C.3     1  UNL1        0.1714
     27 O          61.8632   88.9393   12.4919 O.3     1  UNL1       -0.3467
     28 C          61.5798   88.4742   11.0943 C.3     1  UNL1        0.1687
     29 C          62.0820   87.1385   10.6320 C.ar    1  UNL1        0.0073
     30 C          62.3205   86.8913    9.1718 C.ar    1  UNL1       -0.0019
     31 C          62.8228   85.5557    8.7095 C.ar    1  UNL1       -0.0002
     32 C          63.0865   84.4672    9.7073 C.ar    1  UNL1       -0.0000
     33 C          62.8480   84.7144   11.1674 C.ar    1  UNL1       -0.0002
     34 C          62.3458   86.0501   11.6298 C.ar    1  UNL1       -0.0019
@<TRIPOS>BOND
     1     2     3    1
     2     3     4    1
     3     4     5    1
     4     5     6    1
     5     6     7   am
     6     7     8    2
     7     7     1    1
     8     1    26    1
     9    26    27    1
    10    27    28    1
    11    28    29    1
    12    29    30   ar
    13    30    31   ar
    14    31    32   ar
    15    32    33   ar
    16    33    34   ar
    17     1    11    1
    18    11    12   am
    19    12    13    2
    20    12    15    1
    21    15    18    1
    22    18    19   ar
    23    19    20   ar
    24    20    21   ar
    25    21    22    1
    26    21    23   ar
    27    23    24   ar
    28    24    25    1
    29    15    16    1
    30    16    17    1
    31     6     9    1
    32     9    10    1
    33    10     3    1
    34    34    29   ar
    35    17    15    1
    36    24    18   ar
    37    11    14    1
@<TRIPOS>MOLECULE
*****
 34 37 0 0 0
SMALL
GASTEIGER

@<TRIPOS>ATOM
      1 C          63.6265   89.8085   13.8056 C.3     1  UNL1        0.1787
      2 C          66.7526   94.5865    9.9784 C.3     1  UNL1        0.0897
      3 N          66.1501   93.7066   11.0333 N.3     1  UNL1       -0.2686
      4 C          66.2636   94.0850   12.4803 C.3     1  UNL1        0.0939
      5 C          65.6611   93.2051   13.5351 C.3     1  UNL1        0.1108
      6 N          64.9450   91.9467   13.1429 N.am    1  UNL1       -0.2753
      7 C          64.3425   91.0668   14.1978 C.2     1  UNL1        0.2462
      8 O          64.4560   91.4452   15.6448 O.2     1  UNL1       -0.2730
      9 C          64.8315   91.5683   11.6959 C.3     1  UNL1        0.1108
     10 C          65.4340   92.4483   10.6411 C.3     1  UNL1        0.0939
     11 N          62.2208   89.8761   13.2865 N.am    1  UNL1       -0.2961
     12 C          61.9103   89.4007   11.8982 C.2     1  UNL1        0.2257
     13 O          63.0054   88.8576   11.0289 O.2     1  UNL1       -0.2748
     14 H          61.5019   90.2325   13.8570 H       1  UNL1        0.1499
     15 C          60.5045   89.4683   11.3790 C.3     1  UNL1        0.0884
     16 C          59.0797   89.9101   11.2218 C.3     1  UNL1        0.0135
     17 C          59.9613   90.5693   12.2408 C.3     1  UNL1        0.0135
     18 C          60.5597   88.3908   10.3370 C.ar    1  UNL1       -0.0040
     19 C          60.9016   86.9841   10.7299 C.ar    1  UNL1       -0.0021
     20 C          60.9567   85.9067    9.6877 C.ar    1  UNL1        0.0111
     21 C          60.6699   86.2359    8.2527 C.ar    1  UNL1        0.0585
     22 CL         60.7251   85.1583    7.2105 Cl      1  UNL1       -0.0822
     23 C          60.3280   87.6426    7.8598 C.ar    1  UNL1        0.0225
     24 C          60.2729   88.7200    8.9019 C.ar    1  UNL1        0.0550
     25 CL         59.9309   90.1266    8.5090 Cl      1  UNL1       -0.0825
     26 C          64.3161   88.4824   13.9325 C.3     1  UNL1        0.1714
     27 O          63.8035   87.4603   14.9034 O.3     1  UNL1       -0.3467
     28 C          64.4620   86.1157   14.9943 C.3     1  UNL1        0.1687
     29 C          63.8598   84.9365   14.2895 C.ar    1  UNL1        0.0073
     30 C          63.3194   85.0898   12.8986 C.ar    1  UNL1       -0.0019
     31 C          62.7173   83.9106   12.1937 C.ar    1  UNL1       -0.0002
     32 C          62.6554   82.5781   12.8798 C.ar    1  UNL1       -0.0000
     33 C          63.1958   82.4248   14.2706 C.ar    1  UNL1       -0.0002
     34 C          63.7980   83.6040   14.9755 C.ar    1  UNL1       -0.0019
@<TRIPOS>BOND
     1     2     3    1
     2     3     4    1
     3     4     5    1
     4     5     6    1
     5     6     7   am
     6     7     8    2
     7     7     1    1
     8     1    26    1
     9    26    27    1
    10    27    28    1
    11    28    29    1
    12    29    30   ar
    13    30    31   ar
    14    31    32   ar
    15    32    33   ar
    16    33    34   ar
    17     1    11    1
    18    11    12   am
    19    12    13    2
    20    12    15    1
    21    15    18    1
    22    18    19   ar
    23    19    20   ar
    24    20    21   ar
    25    21    22    1
    26    21    23   ar
    27    23    24   ar
    28    24    25    1
    29    15    16    1
    30    16    17    1
    31     6     9    1
    32     9    10    1
    33    10     3    1
    34    34    29   ar
    35    17    15    1
    36    24    18   ar
    37    11    14    1
