@<TRIPOS>MOLECULE
*****
 36 40 0 0 0
SMALL
GASTEIGER

@<TRIPOS>ATOM
      1 O          59.6583   89.1568    7.1677 O.2     1  UNL1       -0.2726
      2 C          60.4208   89.0159    8.4518 C.2     1  UNL1        0.2500
      3 C          60.4855   87.6865    9.1436 C.3     1  UNL1        0.1135
      4 C          61.2479   87.5455   10.4276 C.2     1  UNL1       -0.0118
      5 C          61.9457   88.7339   11.0199 C.ar    1  UNL1        0.0116
      6 C          62.7081   88.5929   12.3040 C.ar    1  UNL1       -0.0026
      7 C          63.4058   89.7813   12.8963 C.ar    1  UNL1       -0.0122
      8 C          63.3411   91.1107   12.2045 C.ar    1  UNL1       -0.0022
      9 C          62.5787   91.2517   10.9204 C.ar    1  UNL1        0.0163
     10 C          61.8810   90.0633   10.3282 C.ar    1  UNL1        0.0730
     11 N          61.1185   90.2043    9.0441 N.am    1  UNL1       -0.1789
     12 C          61.3125   86.2161   11.1194 C.2     1  UNL1       -0.0037
     13 C          62.5415   85.3651   10.9954 C.2     1  UNL1       -0.0003
     14 C          62.6062   84.0357   11.6872 C.ar    1  UNL1       -0.0000
     15 C          62.4036   83.9518   13.1711 C.ar    1  UNL1       -0.0001
     16 C          62.4683   82.6224   13.8629 C.ar    1  UNL1        0.0039
     17 C          62.7355   81.3770   13.0707 C.ar    1  UNL1        0.0714
     18 C          62.9381   81.4609   11.5869 C.ar    1  UNL1        0.0039
     19 C          62.8734   82.7903   10.8951 C.ar    1  UNL1       -0.0001
     20 C          62.8002   80.0476   13.7625 C.3     1  UNL1        0.4186
     21 F          62.8649   78.7182   14.4542 F       1  UNL1       -0.1659
     22 F          64.2306   80.3088   14.1308 F       1  UNL1       -0.1659
     23 F          61.3698   79.7863   13.3942 F       1  UNL1       -0.1659
     24 C          64.1682   89.6404   14.1804 C.3     1  UNL1        0.0909
     25 C          65.1483   90.6992   14.5908 C.ar    1  UNL1       -0.0122
     26 C          64.8623   91.5646   15.7822 C.ar    1  UNL1       -0.0027
     27 C          65.8423   92.6234   16.1927 C.ar    1  UNL1        0.0111
     28 C          67.1083   92.8169   15.4116 C.ar    1  UNL1        0.0577
     29 CL         68.0883   93.8757   15.8220 Cl      1  UNL1       -0.0822
     30 C          67.3942   91.9516   14.2203 C.ar    1  UNL1        0.0111
     31 C          66.4142   90.8927   13.8098 C.ar    1  UNL1       -0.0027
     32 C          63.9507   88.4406   15.0540 C.ar    1  UNL1        0.0961
     33 N          63.1763   88.4140   16.3384 N.ar    1  UNL1       -0.2405
     34 C          63.2163   87.0138   16.8748 C.ar    1  UNL1        0.1061
     35 C          64.0154   86.1750   15.9219 C.ar    1  UNL1        0.0572
     36 S          64.4693   87.0569   14.7966 S.2     1  UNL1       -0.0696
@<TRIPOS>BOND
     1     1     2    2
     2     2     3    1
     3     3     4    1
     4     4    12    1
     5    12    13    2
     6    13    14    1
     7    14    15   ar
     8    15    16   ar
     9    16    17   ar
    10    17    20    1
    11    20    21    1
    12    20    22    1
    13    20    23    1
    14    17    18   ar
    15    18    19   ar
    16     4     5    2
    17     5     6   ar
    18     6     7   ar
    19     7    24    1
    20    24    25    1
    21    25    26   ar
    22    26    27   ar
    23    27    28   ar
    24    28    29    1
    25    28    30   ar
    26    30    31   ar
    27    24    32    1
    28    32    33   ar
    29    33    34   ar
    30    34    35   ar
    31    35    36   ar
    32     7     8   ar
    33     8     9   ar
    34     9    10   ar
    35    10    11    2
    36    11     2    1
    37    19    14   ar
    38    10     5   ar
    39    31    25   ar
    40    36    32   ar
@<TRIPOS>MOLECULE
*****
 36 40 0 0 0
SMALL
GASTEIGER

@<TRIPOS>ATOM
      1 O          59.2966   88.9394    6.9686 O.2     1  UNL1       -0.2726
      2 C          60.1441   88.9030    8.2057 C.2     1  UNL1        0.2500
      3 C          60.2843   87.6268    8.9814 C.3     1  UNL1        0.1135
      4 C          61.1319   87.5902   10.2184 C.2     1  UNL1       -0.0118
      5 C          61.8393   88.8299   10.6798 C.ar    1  UNL1        0.0116
      6 C          62.6868   88.7934   11.9169 C.ar    1  UNL1       -0.0026
      7 C          63.3941   90.0331   12.3782 C.ar    1  UNL1       -0.0122
      8 C          63.2539   91.3092   11.6025 C.ar    1  UNL1       -0.0022
      9 C          62.4064   91.3458   10.3655 C.ar    1  UNL1        0.0163
     10 C          61.6991   90.1061    9.9041 C.ar    1  UNL1        0.0730
     11 N          60.8515   90.1426    8.6670 N.am    1  UNL1       -0.1789
     12 C          61.2721   86.3140   10.9941 C.2     1  UNL1       -0.0037
     13 C          62.4308   85.3990   10.7295 C.2     1  UNL1       -0.0003
     14 C          62.5710   84.1228   11.5052 C.ar    1  UNL1       -0.0000
     15 C          62.8250   82.8316   10.7853 C.ar    1  UNL1       -0.0001
     16 C          62.9652   81.5554   11.5609 C.ar    1  UNL1        0.0039
     17 C          62.8514   81.5704   13.0566 C.ar    1  UNL1        0.0714
     18 C          62.5973   82.8616   13.7765 C.ar    1  UNL1        0.0039
     19 C          62.4571   84.1378   13.0008 C.ar    1  UNL1       -0.0001
     20 C          62.9915   80.2942   13.8323 C.3     1  UNL1        0.4186
     21 F          63.1317   79.0181   14.6080 F       1  UNL1       -0.1659
     22 F          61.5537   79.9683   13.5560 F       1  UNL1       -0.1659
     23 F          64.4294   80.6201   14.1086 F       1  UNL1       -0.1659
     24 C          64.2417   89.9966   13.6153 C.3     1  UNL1        0.0909
     25 C          63.9296   89.0194   14.7097 C.ar    1  UNL1       -0.0122
     26 C          63.2536   89.4887   15.9639 C.ar    1  UNL1       -0.0027
     27 C          62.9415   88.5115   17.0583 C.ar    1  UNL1        0.0111
     28 C          63.3054   87.0650   16.8985 C.ar    1  UNL1        0.0577
     29 CL         62.9932   86.0879   17.9929 Cl      1  UNL1       -0.0822
     30 C          63.9813   86.5958   15.6444 C.ar    1  UNL1        0.0111
     31 C          64.2934   87.5730   14.5500 C.ar    1  UNL1       -0.0027
     32 C          65.4013   90.9372   13.7580 C.ar    1  UNL1        0.0961
     33 N          66.4224   90.9178   14.8566 N.ar    1  UNL1       -0.2405
     34 C          67.3956   92.0310   14.6047 C.ar    1  UNL1        0.1061
     35 C          66.9760   92.7385   13.3503 C.ar    1  UNL1        0.0572
     36 S          65.7435   92.0625   12.8270 S.2     1  UNL1       -0.0696
@<TRIPOS>BOND
     1     1     2    2
     2     2     3    1
     3     3     4    1
     4     4    12    1
     5    12    13    2
     6    13    14    1
     7    14    15   ar
     8    15    16   ar
     9    16    17   ar
    10    17    20    1
    11    20    21    1
    12    20    22    1
    13    20    23    1
    14    17    18   ar
    15    18    19   ar
    16     4     5    2
    17     5     6   ar
    18     6     7   ar
    19     7    24    1
    20    24    25    1
    21    25    26   ar
    22    26    27   ar
    23    27    28   ar
    24    28    29    1
    25    28    30   ar
    26    30    31   ar
    27    24    32    1
    28    32    33   ar
    29    33    34   ar
    30    34    35   ar
    31    35    36   ar
    32     7     8   ar
    33     8     9   ar
    34     9    10   ar
    35    10    11    2
    36    11     2    1
    37    19    14   ar
    38    10     5   ar
    39    31    25   ar
    40    36    32   ar
@<TRIPOS>MOLECULE
*****
 36 40 0 0 0
SMALL
GASTEIGER

@<TRIPOS>ATOM
      1 O          59.4085   90.4873    7.2373 O.2     1  UNL1       -0.2726
      2 C          60.1323   89.6054    8.2113 C.2     1  UNL1        0.2500
      3 C          60.9404   90.2154    9.3181 C.3     1  UNL1        0.1135
      4 C          61.6641   89.3336   10.2921 C.2     1  UNL1       -0.0118
      5 C          61.5796   87.8418   10.1594 C.ar    1  UNL1        0.0116
      6 C          62.3033   86.9601   11.1334 C.ar    1  UNL1       -0.0026
      7 C          62.2188   85.4684   11.0007 C.ar    1  UNL1       -0.0122
      8 C          61.4106   84.8584    9.8940 C.ar    1  UNL1       -0.0022
      9 C          60.6869   85.7402    8.9200 C.ar    1  UNL1        0.0163
     10 C          60.7715   87.2319    9.0527 C.ar    1  UNL1        0.0730
     11 N          60.0477   88.1137    8.0786 N.am    1  UNL1       -0.1789
     12 C          62.4723   89.9435   11.3988 C.2     1  UNL1       -0.0037
     13 C          63.7251   90.7048   11.0809 C.2     1  UNL1       -0.0003
     14 C          64.5333   91.3147   12.1876 C.ar    1  UNL1       -0.0000
     15 C          65.3561   92.5416   11.9271 C.ar    1  UNL1       -0.0001
     16 C          66.1643   93.1515   13.0338 C.ar    1  UNL1        0.0039
     17 C          66.1496   92.5346   14.4010 C.ar    1  UNL1        0.0714
     18 C          65.3268   91.3079   14.6615 C.ar    1  UNL1        0.0039
     19 C          64.5186   90.6979   13.5548 C.ar    1  UNL1       -0.0001
     20 C          66.9578   93.1446   15.5077 C.3     1  UNL1        0.4186
     21 F          67.7660   93.7545   16.6144 F       1  UNL1       -0.1659
     22 F          65.8982   92.7560   16.4957 F       1  UNL1       -0.1659
     23 F          68.0175   93.5332   14.5197 F       1  UNL1       -0.1659
     24 C          62.9425   84.5865   11.9747 C.3     1  UNL1        0.0909
     25 C          62.9077   83.0964   11.8065 C.ar    1  UNL1       -0.0122
     26 C          63.4918   82.4666   10.5768 C.ar    1  UNL1       -0.0027
     27 C          63.4569   80.9765   10.4085 C.ar    1  UNL1        0.0111
     28 C          62.8380   80.1161   11.4701 C.ar    1  UNL1        0.0577
     29 CL         62.8031   78.6260   11.3019 Cl      1  UNL1       -0.0822
     30 C          62.2539   80.7460   12.6998 C.ar    1  UNL1        0.0111
     31 C          62.2888   82.2361   12.8680 C.ar    1  UNL1       -0.0027
     32 C          63.7010   85.1948   13.1169 C.ar    1  UNL1        0.0961
     33 N          63.5880   86.6121   13.5951 N.ar    1  UNL1       -0.2405
     34 C          64.5229   86.7859   14.7552 C.ar    1  UNL1        0.1061
     35 C          65.2137   85.4759   14.9940 C.ar    1  UNL1        0.0572
     36 S          64.7058   84.4927   13.9815 S.2     1  UNL1       -0.0696
@<TRIPOS>BOND
     1     1     2    2
     2     2     3    1
     3     3     4    1
     4     4    12    1
     5    12    13    2
     6    13    14    1
     7    14    15   ar
     8    15    16   ar
     9    16    17   ar
    10    17    20    1
    11    20    21    1
    12    20    22    1
    13    20    23    1
    14    17    18   ar
    15    18    19   ar
    16     4     5    2
    17     5     6   ar
    18     6     7   ar
    19     7    24    1
    20    24    25    1
    21    25    26   ar
    22    26    27   ar
    23    27    28   ar
    24    28    29    1
    25    28    30   ar
    26    30    31   ar
    27    24    32    1
    28    32    33   ar
    29    33    34   ar
    30    34    35   ar
    31    35    36   ar
    32     7     8   ar
    33     8     9   ar
    34     9    10   ar
    35    10    11    2
    36    11     2    1
    37    19    14   ar
    38    10     5   ar
    39    31    25   ar
    40    36    32   ar
@<TRIPOS>MOLECULE
*****
 36 40 0 0 0
SMALL
GASTEIGER

@<TRIPOS>ATOM
      1 O          59.5151   90.7762    7.3723 O.2     1  UNL1       -0.2726
      2 C          60.1852   89.8389    8.3328 C.2     1  UNL1        0.2500
      3 C          61.0353   90.3834    9.4423 C.3     1  UNL1        0.1135
      4 C          61.7054   89.4462   10.4028 C.2     1  UNL1       -0.0118
      5 C          61.5254   87.9644   10.2538 C.ar    1  UNL1        0.0116
      6 C          62.1955   87.0272   11.2143 C.ar    1  UNL1       -0.0026
      7 C          62.0155   85.5456   11.0653 C.ar    1  UNL1       -0.0122
      8 C          61.1654   85.0011    9.9559 C.ar    1  UNL1       -0.0022
      9 C          60.4953   85.9383    8.9954 C.ar    1  UNL1        0.0163
     10 C          60.6753   87.4200    9.1444 C.ar    1  UNL1        0.0730
     11 N          60.0052   88.3572    8.1838 N.am    1  UNL1       -0.1789
     12 C          62.5555   89.9906   11.5122 C.2     1  UNL1       -0.0037
     13 C          63.7131   90.8910   11.1974 C.2     1  UNL1       -0.0003
     14 C          64.5632   91.4355   12.3068 C.ar    1  UNL1       -0.0000
     15 C          64.5844   90.7500   13.6410 C.ar    1  UNL1       -0.0001
     16 C          65.4345   91.2945   14.7504 C.ar    1  UNL1        0.0039
     17 C          66.2633   92.5244   14.5258 C.ar    1  UNL1        0.0714
     18 C          66.2420   93.2098   13.1917 C.ar    1  UNL1        0.0039
     19 C          65.3920   92.6654   12.0823 C.ar    1  UNL1       -0.0001
     20 C          67.1134   93.0689   15.6352 C.3     1  UNL1        0.4186
     21 F          67.9635   93.6134   16.7447 F       1  UNL1       -0.1659
     22 F          68.1868   93.4110   14.6449 F       1  UNL1       -0.1659
     23 F          66.0400   92.7268   16.6256 F       1  UNL1       -0.1659
     24 C          62.6856   84.6083   12.0259 C.3     1  UNL1        0.0909
     25 C          62.9048   85.0244   13.4502 C.ar    1  UNL1       -0.0122
     26 C          62.1041   84.3899   14.5486 C.ar    1  UNL1       -0.0027
     27 C          62.3232   84.8060   15.9730 C.ar    1  UNL1        0.0111
     28 C          63.3431   85.8566   16.2990 C.ar    1  UNL1        0.0577
     29 CL         63.5622   86.2727   17.7233 Cl      1  UNL1       -0.0822
     30 C          64.1437   86.4910   15.2006 C.ar    1  UNL1        0.0111
     31 C          63.9246   86.0749   13.7763 C.ar    1  UNL1       -0.0027
     32 C          63.1365   83.2550   11.5620 C.ar    1  UNL1        0.0961
     33 N          62.5967   81.9368   12.0320 N.ar    1  UNL1       -0.2405
     34 C          63.3330   80.8493   11.3072 C.ar    1  UNL1        0.1061
     35 C          64.3279   81.4956   10.3891 C.ar    1  UNL1        0.0572
     36 S          64.2064   82.9823   10.5467 S.2     1  UNL1       -0.0696
@<TRIPOS>BOND
     1     1     2    2
     2     2     3    1
     3     3     4    1
     4     4    12    1
     5    12    13    2
     6    13    14    1
     7    14    15   ar
     8    15    16   ar
     9    16    17   ar
    10    17    20    1
    11    20    21    1
    12    20    22    1
    13    20    23    1
    14    17    18   ar
    15    18    19   ar
    16     4     5    2
    17     5     6   ar
    18     6     7   ar
    19     7    24    1
    20    24    25    1
    21    25    26   ar
    22    26    27   ar
    23    27    28   ar
    24    28    29    1
    25    28    30   ar
    26    30    31   ar
    27    24    32    1
    28    32    33   ar
    29    33    34   ar
    30    34    35   ar
    31    35    36   ar
    32     7     8   ar
    33     8     9   ar
    34     9    10   ar
    35    10    11    2
    36    11     2    1
    37    19    14   ar
    38    10     5   ar
    39    31    25   ar
    40    36    32   ar
@<TRIPOS>MOLECULE
*****
 36 40 0 0 0
SMALL
GASTEIGER

@<TRIPOS>ATOM
      1 O          62.9776   86.6187   19.7683 O.2     1  UNL1       -0.2726
      2 C          63.0825   87.0733   18.3426 C.2     1  UNL1        0.2500
      3 C          63.1582   86.0626   17.2368 C.3     1  UNL1        0.1135
      4 C          63.2632   86.5172   15.8112 C.2     1  UNL1       -0.0118
      5 C          63.2924   87.9825   15.4914 C.ar    1  UNL1        0.0116
      6 C          63.3973   88.4370   14.0658 C.ar    1  UNL1       -0.0026
      7 C          63.4265   89.9022   13.7460 C.ar    1  UNL1       -0.0122
      8 C          63.3507   90.9128   14.8519 C.ar    1  UNL1       -0.0022
      9 C          63.2458   90.4583   16.2774 C.ar    1  UNL1        0.0163
     10 C          63.2166   88.9931   16.5972 C.ar    1  UNL1        0.0730
     11 N          63.1117   88.5385   18.0229 N.am    1  UNL1       -0.1789
     12 C          63.3389   85.5065   14.7054 C.2     1  UNL1       -0.0037
     13 C          62.6805   84.1684   14.8660 C.2     1  UNL1       -0.0003
     14 C          62.7562   83.1577   13.7602 C.ar    1  UNL1       -0.0000
     15 C          63.2290   83.5707   12.3978 C.ar    1  UNL1       -0.0001
     16 C          63.3048   82.5600   11.2920 C.ar    1  UNL1        0.0039
     17 C          62.9076   81.1364   11.5485 C.ar    1  UNL1        0.0714
     18 C          62.4349   80.7235   12.9108 C.ar    1  UNL1        0.0039
     19 C          62.3591   81.7342   14.0166 C.ar    1  UNL1       -0.0001
     20 C          62.9834   80.1257   10.4427 C.3     1  UNL1        0.4186
     21 F          63.0591   79.1151    9.3369 F       1  UNL1       -0.1659
     22 F          63.3933   81.2047    9.4847 F       1  UNL1       -0.1659
     23 F          62.5735   79.0468   11.4007 F       1  UNL1       -0.1659
     24 C          63.5314   90.3568   12.3204 C.3     1  UNL1        0.0909
     25 C          62.6162   89.7815   11.2805 C.ar    1  UNL1       -0.0122
     26 C          62.8810   88.4149   10.7215 C.ar    1  UNL1       -0.0027
     27 C          61.9658   87.8397    9.6816 C.ar    1  UNL1        0.0111
     28 C          60.7857   88.6310    9.2007 C.ar    1  UNL1        0.0577
     29 CL         59.8705   88.0557    8.1607 Cl      1  UNL1       -0.0822
     30 C          60.5209   89.9975    9.7596 C.ar    1  UNL1        0.0111
     31 C          61.4361   90.5728   10.7995 C.ar    1  UNL1       -0.0027
     32 C          64.5515   91.3866   11.9347 C.ar    1  UNL1        0.0961
     33 N          64.7219   91.9921   10.5729 N.ar    1  UNL1       -0.2405
     34 C          65.8561   92.9715   10.6397 C.ar    1  UNL1        0.1061
     35 C          66.3866   92.9713   12.0428 C.ar    1  UNL1        0.0572
     36 S          65.5804   91.9918   12.8431 S.2     1  UNL1       -0.0696
@<TRIPOS>BOND
     1     1     2    2
     2     2     3    1
     3     3     4    1
     4     4    12    1
     5    12    13    2
     6    13    14    1
     7    14    15   ar
     8    15    16   ar
     9    16    17   ar
    10    17    20    1
    11    20    21    1
    12    20    22    1
    13    20    23    1
    14    17    18   ar
    15    18    19   ar
    16     4     5    2
    17     5     6   ar
    18     6     7   ar
    19     7    24    1
    20    24    25    1
    21    25    26   ar
    22    26    27   ar
    23    27    28   ar
    24    28    29    1
    25    28    30   ar
    26    30    31   ar
    27    24    32    1
    28    32    33   ar
    29    33    34   ar
    30    34    35   ar
    31    35    36   ar
    32     7     8   ar
    33     8     9   ar
    34     9    10   ar
    35    10    11    2
    36    11     2    1
    37    19    14   ar
    38    10     5   ar
    39    31    25   ar
    40    36    32   ar
