@<TRIPOS>MOLECULE
*****
 42 45 0 0 0
SMALL
GASTEIGER

@<TRIPOS>ATOM
      1 C          64.8785   92.0157   11.4516 C.3     1  UNL1        0.1695
      2 C          65.5816   92.4269   12.7112 C.3     1  UNL1        0.1272
      3 N          65.2719   92.0349   14.1256 N.am    1  UNL1       -0.2538
      4 C          66.1702   92.6203   15.1746 C.2     1  UNL1        0.2535
      5 O          65.9472   92.2922   16.6213 O.2     1  UNL1       -0.2726
      6 C          64.1829   91.1350   14.6297 C.ar    1  UNL1        0.0676
      7 C          64.2249   91.0076   16.1237 C.ar    1  UNL1        0.0162
      8 C          63.2185   90.1500   16.8319 C.ar    1  UNL1        0.0014
      9 C          62.1701   89.4197   16.0460 C.ar    1  UNL1        0.0014
     10 C          62.1281   89.5471   14.5521 C.ar    1  UNL1        0.0162
     11 C          63.1345   90.4047   13.8439 C.ar    1  UNL1        0.0679
     12 N          62.9162   90.3941   12.3599 N.am    1  UNL1       -0.2517
     13 C          63.6923   91.1110   11.2952 C.2     1  UNL1        0.2493
     14 O          63.2198   90.8946    9.8881 O.2     1  UNL1       -0.2727
     15 C          66.4416   93.6955   10.2330 C.2     1  UNL1        0.2371
     16 O          66.8911   94.2380   11.5573 O.2     1  UNL1       -0.2737
     17 N          65.4354   92.5844   10.1801 N.am    1  UNL1       -0.2959
     18 H          65.1404   92.2283    9.3110 H       1  UNL1        0.1499
     19 C          66.9984   94.2642    8.9616 C.3     1  UNL1        0.1316
     20 C          66.5250   95.5987    8.4663 C.3     1  UNL1        0.0270
     21 C          68.7837   92.3805    8.8411 C.3     1  UNL1        0.0862
     22 N          68.0286   93.4985    8.1854 N.3     1  UNL1       -0.2902
     23 H          67.5511   93.0976    7.3781 H       1  UNL1        0.1237
     24 C          67.2915   93.5339   14.7771 C.3     1  UNL1        0.2357
     25 S          68.6706   93.3103   15.3231 S.O2    1  UNL1        0.0007
     26 C          70.0497   93.0867   15.8692 C.3     1  UNL1        0.1766
     27 O          68.9231   92.2795   14.2631 O.2     1  UNL1       -0.1725
     28 O          68.4181   94.3412   16.3831 O.2     1  UNL1       -0.1725
     29 C          61.7701   89.5555   11.8767 C.3     1  UNL1        0.1278
     30 C          62.0337   88.2404   11.2052 C.ar    1  UNL1        0.0320
     31 C          61.6045   88.0246    9.7842 C.ar    1  UNL1        0.1363
     32 C          61.8681   86.7095    9.1126 C.ar    1  UNL1        0.0366
     33 C          62.5609   85.6102    9.8620 C.ar    1  UNL1        0.0031
     34 C          62.9902   85.8260   11.2830 C.ar    1  UNL1        0.0004
     35 C          63.6830   84.7268   12.0323 C.ar    1  UNL1        0.0067
     36 C          64.1122   84.9426   13.4533 C.ar    1  UNL1        0.0346
     37 BR         64.8050   83.8433   14.2027 Br      1  UNL1       -0.0490
     38 C          63.8486   86.2577   14.1249 C.ar    1  UNL1        0.0067
     39 C          63.1558   87.3570   13.3755 C.ar    1  UNL1        0.0003
     40 C          62.7266   87.1412   11.9546 C.ar    1  UNL1        0.0006
     41 O          60.9117   89.1239    9.0348 O.3     1  UNL1       -0.4717
     42 C          59.8246   89.1564    8.0017 C.3     1  UNL1        0.2525
@<TRIPOS>BOND
     1    21    22    1
     2    22    19    1
     3    19    20    1
     4    19    15    1
     5    15    16    2
     6    15    17   am
     7     1    17    1
     8     1     2    1
     9     2     3    1
    10     3     4   am
    11     4     5    2
    12     4    24    1
    13    24    25    1
    14    25    26    1
    15    25    27    2
    16    25    28    2
    17     3     6    1
    18     6     7   ar
    19     7     8   ar
    20     8     9   ar
    21     9    10   ar
    22    10    11   ar
    23    11    12    1
    24    12    29    1
    25    29    30    1
    26    30    31   ar
    27    31    41    1
    28    41    42    1
    29    31    32   ar
    30    32    33   ar
    31    33    34   ar
    32    34    35   ar
    33    35    36   ar
    34    36    37    1
    35    36    38   ar
    36    38    39   ar
    37    39    40   ar
    38    12    13   am
    39    13    14    2
    40    13     1    1
    41    11     6   ar
    42    40    30   ar
    43    40    34   ar
    44    22    23    1
    45    17    18    1
@<TRIPOS>MOLECULE
*****
 42 45 0 0 0
SMALL
GASTEIGER

@<TRIPOS>ATOM
      1 C          62.5655   85.8636   12.6559 C.3     1  UNL1        0.1695
      2 C          61.8030   86.3521   11.4602 C.3     1  UNL1        0.1272
      3 N          61.8161   87.7160   10.8360 N.am    1  UNL1       -0.2538
      4 C          60.9336   87.8909    9.6357 C.2     1  UNL1        0.2535
      5 O          60.8729   89.2165    8.9360 O.2     1  UNL1       -0.2726
      6 C          62.5949   88.9282   11.2533 C.ar    1  UNL1        0.0676
      7 C          62.3168   90.0951   10.3527 C.ar    1  UNL1        0.0162
      8 C          62.9969   91.4096   10.5968 C.ar    1  UNL1        0.0014
      9 C          63.9550   91.5572   11.7415 C.ar    1  UNL1        0.0014
     10 C          64.2331   90.3903   12.6420 C.ar    1  UNL1        0.0162
     11 C          63.5530   89.0758   12.3979 C.ar    1  UNL1        0.0679
     12 N          63.9689   88.0477   13.4079 N.am    1  UNL1       -0.2517
     13 C          63.5295   86.6181   13.5228 C.2     1  UNL1        0.2493
     14 O          64.1338   85.8403   14.6540 O.2     1  UNL1       -0.2727
     15 C          62.9653   83.3314   12.2339 C.2     1  UNL1        0.2371
     16 O          63.8294   83.6645   11.0538 O.2     1  UNL1       -0.2737
     17 N          62.3334   84.4309   13.0350 N.am    1  UNL1       -0.2959
     18 H          61.7664   84.2123   13.8095 H       1  UNL1        0.1499
     19 C          62.7332   81.8987   12.6130 C.3     1  UNL1        0.1316
     20 C          63.0175   80.8061   11.6253 C.3     1  UNL1        0.0270
     21 C          60.9187   80.8223   14.1291 C.3     1  UNL1        0.0862
     22 N          62.2170   81.5587   13.9796 N.3     1  UNL1       -0.2902
     23 H          62.9323   80.9889   14.4313 H       1  UNL1        0.1237
     24 C          60.1118   86.7403    9.1349 C.3     1  UNL1        0.2357
     25 S          60.5127   86.0221    7.8806 S.O2    1  UNL1        0.0007
     26 C          60.9136   85.3038    6.6262 C.3     1  UNL1        0.1766
     27 O          61.8973   85.8391    8.4279 O.2     1  UNL1       -0.1725
     28 O          59.1281   86.2050    7.3333 O.2     1  UNL1       -0.1725
     29 C          64.9546   88.5105   14.4395 C.3     1  UNL1        0.1278
     30 C          64.6796   89.7512   15.2365 C.ar    1  UNL1        0.0320
     31 C          63.3885   89.8894   15.9873 C.ar    1  UNL1        0.1363
     32 C          63.1134   91.1301   16.7842 C.ar    1  UNL1        0.0366
     33 C          64.1295   92.2325   16.8302 C.ar    1  UNL1        0.0031
     34 C          65.4207   92.0943   16.0794 C.ar    1  UNL1        0.0004
     35 C          66.4368   93.1968   16.1254 C.ar    1  UNL1        0.0067
     36 C          67.7279   93.0585   15.3745 C.ar    1  UNL1        0.0346
     37 BR         68.7440   94.1610   15.4206 Br      1  UNL1       -0.0490
     38 C          68.0030   91.8178   14.5776 C.ar    1  UNL1        0.0067
     39 C          66.9869   90.7154   14.5316 C.ar    1  UNL1        0.0003
     40 C          65.6958   90.8536   15.2824 C.ar    1  UNL1        0.0006
     41 O          62.3723   88.7870   15.9413 O.3     1  UNL1       -0.4717
     42 C          62.1140   87.5721   16.7823 C.3     1  UNL1        0.2525
@<TRIPOS>BOND
     1    21    22    1
     2    22    19    1
     3    19    20    1
     4    19    15    1
     5    15    16    2
     6    15    17   am
     7     1    17    1
     8     1     2    1
     9     2     3    1
    10     3     4   am
    11     4     5    2
    12     4    24    1
    13    24    25    1
    14    25    26    1
    15    25    27    2
    16    25    28    2
    17     3     6    1
    18     6     7   ar
    19     7     8   ar
    20     8     9   ar
    21     9    10   ar
    22    10    11   ar
    23    11    12    1
    24    12    29    1
    25    29    30    1
    26    30    31   ar
    27    31    41    1
    28    41    42    1
    29    31    32   ar
    30    32    33   ar
    31    33    34   ar
    32    34    35   ar
    33    35    36   ar
    34    36    37    1
    35    36    38   ar
    36    38    39   ar
    37    39    40   ar
    38    12    13   am
    39    13    14    2
    40    13     1    1
    41    11     6   ar
    42    40    30   ar
    43    40    34   ar
    44    22    23    1
    45    17    18    1
@<TRIPOS>MOLECULE
*****
 42 45 0 0 0
SMALL
GASTEIGER

@<TRIPOS>ATOM
      1 C          65.0521   92.0806   11.6094 C.3     1  UNL1        0.1695
      2 C          65.7787   92.5301   12.8423 C.3     1  UNL1        0.1272
      3 N          65.4851   92.1959   14.2748 N.am    1  UNL1       -0.2538
      4 C          66.4059   92.8089   15.2880 C.2     1  UNL1        0.2535
      5 O          66.2002   92.5386   16.7491 O.2     1  UNL1       -0.2726
      6 C          64.3926   91.3298   14.8283 C.ar    1  UNL1        0.0676
      7 C          64.4551   91.2585   16.3253 C.ar    1  UNL1        0.0162
      8 C          63.4487   90.4413   17.0798 C.ar    1  UNL1        0.0014
      9 C          62.3799   89.6954   16.3374 C.ar    1  UNL1        0.0014
     10 C          62.3174   89.7667   14.8404 C.ar    1  UNL1        0.0162
     11 C          63.3238   90.5839   14.0859 C.ar    1  UNL1        0.0679
     12 N          63.0835   90.5200   12.6066 N.am    1  UNL1       -0.2517
     13 C          63.8526   91.1860   11.5044 C.2     1  UNL1        0.2493
     14 O          63.3568   90.9227   10.1135 O.2     1  UNL1       -0.2727
     15 C          66.4847   93.8027   10.2933 C.2     1  UNL1        0.2371
     16 O          66.8273   94.4988   11.5771 O.2     1  UNL1       -0.2737
     17 N          65.5971   92.5936   10.3094 N.am    1  UNL1       -0.2959
     18 H          65.3722   92.1367    9.4669 H       1  UNL1        0.1499
     19 C          67.0297   94.3157    8.9933 C.3     1  UNL1        0.1316
     20 C          66.5975   95.6555    8.4755 C.3     1  UNL1        0.0270
     21 C          68.7717   92.3910    8.8892 C.3     1  UNL1        0.0862
     22 N          68.0068   93.4889    8.2113 N.3     1  UNL1       -0.2902
     23 H          67.4836   93.0565    7.4499 H       1  UNL1        0.1237
     24 C          67.5324   93.6923   14.8401 C.3     1  UNL1        0.2357
     25 S          68.8857   93.5614   15.4738 S.O2    1  UNL1        0.0007
     26 C          70.2390   93.4306   16.1075 C.3     1  UNL1        0.1766
     27 O          69.1958   92.4032   14.5725 O.2     1  UNL1       -0.1725
     28 O          68.5757   94.7197   16.3751 O.2     1  UNL1       -0.1725
     29 C          61.9202   89.6786   12.1720 C.3     1  UNL1        0.1278
     30 C          62.1484   88.2804   11.6789 C.ar    1  UNL1        0.0320
     31 C          63.0752   87.3649   12.4224 C.ar    1  UNL1        0.1363
     32 C          63.3035   85.9668   11.9294 C.ar    1  UNL1        0.0366
     33 C          62.6050   85.4842   10.6927 C.ar    1  UNL1        0.0031
     34 C          61.6782   86.3998    9.9492 C.ar    1  UNL1        0.0004
     35 C          60.9797   85.9173    8.7125 C.ar    1  UNL1        0.0067
     36 C          60.0530   86.8329    7.9690 C.ar    1  UNL1        0.0346
     37 BR         59.3545   86.3503    6.7324 Br      1  UNL1       -0.0490
     38 C          59.8247   88.2310    8.4621 C.ar    1  UNL1        0.0067
     39 C          60.5232   88.7135    9.6988 C.ar    1  UNL1        0.0003
     40 C          61.4499   87.7980   10.4422 C.ar    1  UNL1        0.0006
     41 O          63.7737   87.8474   13.6591 O.3     1  UNL1       -0.4717
     42 C          64.5381   87.1680   14.7564 C.3     1  UNL1        0.2525
@<TRIPOS>BOND
     1    21    22    1
     2    22    19    1
     3    19    20    1
     4    19    15    1
     5    15    16    2
     6    15    17   am
     7     1    17    1
     8     1     2    1
     9     2     3    1
    10     3     4   am
    11     4     5    2
    12     4    24    1
    13    24    25    1
    14    25    26    1
    15    25    27    2
    16    25    28    2
    17     3     6    1
    18     6     7   ar
    19     7     8   ar
    20     8     9   ar
    21     9    10   ar
    22    10    11   ar
    23    11    12    1
    24    12    29    1
    25    29    30    1
    26    30    31   ar
    27    31    41    1
    28    41    42    1
    29    31    32   ar
    30    32    33   ar
    31    33    34   ar
    32    34    35   ar
    33    35    36   ar
    34    36    37    1
    35    36    38   ar
    36    38    39   ar
    37    39    40   ar
    38    12    13   am
    39    13    14    2
    40    13     1    1
    41    11     6   ar
    42    40    30   ar
    43    40    34   ar
    44    22    23    1
    45    17    18    1
@<TRIPOS>MOLECULE
*****
 42 45 0 0 0
SMALL
GASTEIGER

@<TRIPOS>ATOM
      1 C          62.9496   86.0634   11.2508 C.3     1  UNL1        0.1695
      2 C          63.3132   84.8955   12.1191 C.3     1  UNL1        0.1272
      3 N          63.5421   84.8676   13.6012 N.am    1  UNL1       -0.2538
      4 C          63.8960   83.5298   14.1800 C.2     1  UNL1        0.2535
      5 O          64.1454   83.3919   15.6527 O.2     1  UNL1       -0.2726
      6 C          63.4640   86.0006   14.5812 C.ar    1  UNL1        0.0676
      7 C          63.7660   85.5401   15.9765 C.ar    1  UNL1        0.0162
      8 C          63.7417   86.5204   17.1115 C.ar    1  UNL1        0.0014
      9 C          63.4153   87.9612   16.8513 C.ar    1  UNL1        0.0014
     10 C          63.1133   88.4216   15.4561 C.ar    1  UNL1        0.0162
     11 C          63.1376   87.4413   14.3210 C.ar    1  UNL1        0.0679
     12 N          62.8088   88.1049   13.0166 N.am    1  UNL1       -0.2517
     13 C          62.7251   87.4918   11.6502 C.2     1  UNL1        0.2493
     14 O          62.3700   88.4310   10.5360 O.2     1  UNL1       -0.2727
     15 C          61.4317   85.8286    9.1554 C.2     1  UNL1        0.2371
     16 O          60.2344   86.1942    9.9817 O.2     1  UNL1       -0.2737
     17 N          62.7893   85.7633    9.7899 N.am    1  UNL1       -0.2959
     18 H          63.5751   85.5234    9.2475 H       1  UNL1        0.1499
     19 C          61.2714   85.5285    7.6945 C.3     1  UNL1        0.1316
     20 C          62.4222   84.9663    6.9136 C.3     1  UNL1        0.0270
     21 C          59.1478   86.9941    7.3903 C.3     1  UNL1        0.0862
     22 N          59.9604   85.7905    7.0144 N.3     1  UNL1       -0.2902
     23 H          60.1566   85.8676    6.0165 H       1  UNL1        0.1237
     24 C          64.0005   82.3298   13.2861 C.3     1  UNL1        0.2357
     25 S          63.0155   81.2065   13.4203 S.O2    1  UNL1        0.0007
     26 C          62.0304   80.0832   13.5545 C.3     1  UNL1        0.1766
     27 O          62.0940   81.8999   12.4611 O.2     1  UNL1       -0.1725
     28 O          63.9370   80.5130   14.3795 O.2     1  UNL1       -0.1725
     29 C          62.5263   89.5764   13.0880 C.3     1  UNL1        0.1278
     30 C          63.3916   90.5437   12.3359 C.ar    1  UNL1        0.0320
     31 C          62.9694   91.0313   10.9817 C.ar    1  UNL1        0.1363
     32 C          63.8347   91.9986   10.2296 C.ar    1  UNL1        0.0366
     33 C          65.1221   92.4782   10.8317 C.ar    1  UNL1        0.0031
     34 C          65.5443   91.9905   12.1860 C.ar    1  UNL1        0.0004
     35 C          66.8317   92.4700   12.7881 C.ar    1  UNL1        0.0067
     36 C          67.2538   91.9823   14.1423 C.ar    1  UNL1        0.0346
     37 BR         68.5413   92.4619   14.7444 Br      1  UNL1       -0.0490
     38 C          66.3885   91.0150   14.8944 C.ar    1  UNL1        0.0067
     39 C          65.1011   90.5355   14.2922 C.ar    1  UNL1        0.0003
     40 C          64.6790   91.0232   12.9381 C.ar    1  UNL1        0.0006
     41 O          61.6820   90.5518   10.3795 O.3     1  UNL1       -0.4717
     42 C          60.2411   90.6526   10.7840 C.3     1  UNL1        0.2525
@<TRIPOS>BOND
     1    21    22    1
     2    22    19    1
     3    19    20    1
     4    19    15    1
     5    15    16    2
     6    15    17   am
     7     1    17    1
     8     1     2    1
     9     2     3    1
    10     3     4   am
    11     4     5    2
    12     4    24    1
    13    24    25    1
    14    25    26    1
    15    25    27    2
    16    25    28    2
    17     3     6    1
    18     6     7   ar
    19     7     8   ar
    20     8     9   ar
    21     9    10   ar
    22    10    11   ar
    23    11    12    1
    24    12    29    1
    25    29    30    1
    26    30    31   ar
    27    31    41    1
    28    41    42    1
    29    31    32   ar
    30    32    33   ar
    31    33    34   ar
    32    34    35   ar
    33    35    36   ar
    34    36    37    1
    35    36    38   ar
    36    38    39   ar
    37    39    40   ar
    38    12    13   am
    39    13    14    2
    40    13     1    1
    41    11     6   ar
    42    40    30   ar
    43    40    34   ar
    44    22    23    1
    45    17    18    1
@<TRIPOS>MOLECULE
*****
 42 45 0 0 0
SMALL
GASTEIGER

@<TRIPOS>ATOM
      1 C          62.9090   86.1598   11.6493 C.3     1  UNL1        0.1695
      2 C          62.3399   85.8536   10.2956 C.3     1  UNL1        0.1272
      3 N          61.4611   86.7118    9.4347 N.am    1  UNL1       -0.2538
      4 C          61.0554   86.1147    8.1198 C.2     1  UNL1        0.2535
      5 O          60.1769   86.8900    7.1831 O.2     1  UNL1       -0.2726
      6 C          60.9343   88.0880    9.7147 C.ar    1  UNL1        0.0676
      7 C          60.0865   88.5909    8.5840 C.ar    1  UNL1        0.0162
      8 C          59.4607   89.9517    8.6635 C.ar    1  UNL1        0.0014
      9 C          59.6827   90.8098    9.8737 C.ar    1  UNL1        0.0014
     10 C          60.5304   90.3069   11.0044 C.ar    1  UNL1        0.0162
     11 C          61.1562   88.9461   10.9249 C.ar    1  UNL1        0.0679
     12 N          61.9598   88.6397   12.1539 N.am    1  UNL1       -0.2517
     13 C          62.7398   87.3998   12.4763 C.2     1  UNL1        0.2493
     14 O          63.4438   87.3997   13.8008 O.2     1  UNL1       -0.2727
     15 C          63.2170   84.2366   13.3687 C.2     1  UNL1        0.2371
     16 O          61.8234   84.4655   13.8744 O.2     1  UNL1       -0.2737
     17 N          63.7598   85.0838   12.2562 N.am    1  UNL1       -0.2959
     18 H          64.6744   84.9336   11.9243 H       1  UNL1        0.1499
     19 C          64.0678   83.1606   13.9756 C.3     1  UNL1        0.1316
     20 C          64.6938   83.3698   15.3227 C.3     1  UNL1        0.0270
     21 C          63.1367   81.1683   12.5923 C.3     1  UNL1        0.0862
     22 N          64.2926   81.8754   13.2355 N.3     1  UNL1       -0.2902
     23 H          64.9643   82.0760   12.4946 H       1  UNL1        0.1237
     24 C          61.5281   84.7423    7.7415 C.3     1  UNL1        0.2357
     25 S          61.9104   84.4455    6.3218 S.O2    1  UNL1        0.0007
     26 C          62.2927   84.1488    4.9020 C.3     1  UNL1        0.1766
     27 O          63.3236   84.8525    6.6172 O.2     1  UNL1       -0.1725
     28 O          60.4972   84.0385    6.0263 O.2     1  UNL1       -0.1725
     29 C          61.9868   89.7157   13.1987 C.3     1  UNL1        0.1278
     30 C          63.2986   90.2633   13.6776 C.ar    1  UNL1        0.0320
     31 C          63.7373   90.0288   15.0927 C.ar    1  UNL1        0.1363
     32 C          65.0491   90.5764   15.5718 C.ar    1  UNL1        0.0366
     33 C          65.9221   91.3584   14.6357 C.ar    1  UNL1        0.0031
     34 C          65.4834   91.5929   13.2205 C.ar    1  UNL1        0.0004
     35 C          66.3564   92.3749   12.2844 C.ar    1  UNL1        0.0067
     36 C          65.9176   92.6093   10.8693 C.ar    1  UNL1        0.0346
     37 BR         66.7907   93.3913    9.9332 Br      1  UNL1       -0.0490
     38 C          64.6059   92.0617   10.3903 C.ar    1  UNL1        0.0067
     39 C          63.7329   91.2797   11.3264 C.ar    1  UNL1        0.0003
     40 C          64.1716   91.0453   12.7415 C.ar    1  UNL1        0.0006
     41 O          62.8643   89.2469   16.0289 O.3     1  UNL1       -0.4717
     42 C          63.1337   88.2525   17.1192 C.3     1  UNL1        0.2525
@<TRIPOS>BOND
     1    21    22    1
     2    22    19    1
     3    19    20    1
     4    19    15    1
     5    15    16    2
     6    15    17   am
     7     1    17    1
     8     1     2    1
     9     2     3    1
    10     3     4   am
    11     4     5    2
    12     4    24    1
    13    24    25    1
    14    25    26    1
    15    25    27    2
    16    25    28    2
    17     3     6    1
    18     6     7   ar
    19     7     8   ar
    20     8     9   ar
    21     9    10   ar
    22    10    11   ar
    23    11    12    1
    24    12    29    1
    25    29    30    1
    26    30    31   ar
    27    31    41    1
    28    41    42    1
    29    31    32   ar
    30    32    33   ar
    31    33    34   ar
    32    34    35   ar
    33    35    36   ar
    34    36    37    1
    35    36    38   ar
    36    38    39   ar
    37    39    40   ar
    38    12    13   am
    39    13    14    2
    40    13     1    1
    41    11     6   ar
    42    40    30   ar
    43    40    34   ar
    44    22    23    1
    45    17    18    1
@<TRIPOS>MOLECULE
*****
 42 45 0 0 0
SMALL
GASTEIGER

@<TRIPOS>ATOM
      1 C          61.2729   89.2298    9.5894 C.3     1  UNL1        0.1695
      2 C          61.3880   87.7533    9.3509 C.3     1  UNL1        0.1272
      3 N          62.0048   86.7089   10.2332 N.am    1  UNL1       -0.2538
      4 C          61.9619   85.3047    9.7073 C.2     1  UNL1        0.2535
      5 O          62.5513   84.1841   10.5118 O.2     1  UNL1       -0.2726
      6 C          62.6589   86.8827   11.5719 C.ar    1  UNL1        0.0676
      7 C          63.1467   85.5735   12.1177 C.ar    1  UNL1        0.0162
      8 C          63.8332   85.5257   13.4504 C.ar    1  UNL1        0.0014
      9 C          64.0320   86.7871   14.2374 C.ar    1  UNL1        0.0014
     10 C          63.5442   88.0963   13.6916 C.ar    1  UNL1        0.0162
     11 C          62.8577   88.1441   12.3589 C.ar    1  UNL1        0.0679
     12 N          62.4514   89.5432   12.0015 N.am    1  UNL1       -0.2517
     13 C          61.7462   90.0264   10.7690 C.2     1  UNL1        0.2493
     14 O          61.4789   91.5011   10.7080 O.2     1  UNL1       -0.2727
     15 C          59.8531   89.2982    7.4147 C.2     1  UNL1        0.2371
     16 O          59.7892   87.7996    7.4092 O.2     1  UNL1       -0.2737
     17 N          60.5949   90.0133    8.5048 N.am    1  UNL1       -0.2959
     18 H          60.6368   90.9969    8.5083 H       1  UNL1        0.1499
     19 C          59.1750   90.0818    6.3301 C.3     1  UNL1        0.1316
     20 C          59.9942   90.8525    5.3376 C.3     1  UNL1        0.0270
     21 C          56.9961   90.9699    5.2286 C.3     1  UNL1        0.0862
     22 N          57.6779   90.0945    6.2379 N.3     1  UNL1       -0.2902
     23 H          57.3869   89.1368    6.0416 H       1  UNL1        0.1237
     24 C          61.3297   85.0211    8.3769 C.3     1  UNL1        0.2357
     25 S          62.1899   84.8332    7.1625 S.O2    1  UNL1        0.0007
     26 C          63.0502   84.6453    5.9482 C.3     1  UNL1        0.1766
     27 O          60.9829   84.4261    6.3705 O.2     1  UNL1       -0.1725
     28 O          63.3970   85.2403    7.9546 O.2     1  UNL1       -0.1725
     29 C          62.7961   90.5986   13.0101 C.3     1  UNL1        0.1278
     30 C          64.2319   90.9444   13.2732 C.ar    1  UNL1        0.0320
     31 C          64.8829   90.5185   14.5556 C.ar    1  UNL1        0.1363
     32 C          66.3187   90.8642   14.8188 C.ar    1  UNL1        0.0366
     33 C          67.1032   91.6359   13.7994 C.ar    1  UNL1        0.0031
     34 C          66.4521   92.0618   12.5169 C.ar    1  UNL1        0.0004
     35 C          67.2367   92.8334   11.4976 C.ar    1  UNL1        0.0067
     36 C          66.5855   93.2592   10.2152 C.ar    1  UNL1        0.0346
     37 BR         67.3700   94.0309    9.1958 Br      1  UNL1       -0.0490
     38 C          65.1497   92.9135    9.9520 C.ar    1  UNL1        0.0067
     39 C          64.3653   92.1419   10.9714 C.ar    1  UNL1        0.0003
     40 C          65.0164   91.7160   12.2538 C.ar    1  UNL1        0.0006
     41 O          64.0984   89.7469   15.5750 O.3     1  UNL1       -0.4717
     42 C          63.2282   90.1359   16.7332 C.3     1  UNL1        0.2525
@<TRIPOS>BOND
     1    21    22    1
     2    22    19    1
     3    19    20    1
     4    19    15    1
     5    15    16    2
     6    15    17   am
     7     1    17    1
     8     1     2    1
     9     2     3    1
    10     3     4   am
    11     4     5    2
    12     4    24    1
    13    24    25    1
    14    25    26    1
    15    25    27    2
    16    25    28    2
    17     3     6    1
    18     6     7   ar
    19     7     8   ar
    20     8     9   ar
    21     9    10   ar
    22    10    11   ar
    23    11    12    1
    24    12    29    1
    25    29    30    1
    26    30    31   ar
    27    31    41    1
    28    41    42    1
    29    31    32   ar
    30    32    33   ar
    31    33    34   ar
    32    34    35   ar
    33    35    36   ar
    34    36    37    1
    35    36    38   ar
    36    38    39   ar
    37    39    40   ar
    38    12    13   am
    39    13    14    2
    40    13     1    1
    41    11     6   ar
    42    40    30   ar
    43    40    34   ar
    44    22    23    1
    45    17    18    1
@<TRIPOS>MOLECULE
*****
 42 45 0 0 0
SMALL
GASTEIGER

@<TRIPOS>ATOM
      1 C          62.2038   88.3887   10.4715 C.3     1  UNL1        0.1695
      2 C          62.4042   86.9511   10.8500 C.3     1  UNL1        0.1272
      3 N          62.9758   86.3889   12.1177 N.am    1  UNL1       -0.2538
      4 C          63.0441   84.8923   12.1932 C.2     1  UNL1        0.2535
      5 O          63.5992   84.2276   13.4180 O.2     1  UNL1       -0.2726
      6 C          63.4882   87.1251   13.3200 C.ar    1  UNL1        0.0676
      7 C          63.9756   86.1780   14.3761 C.ar    1  UNL1        0.0162
      8 C          64.5302   86.7114   15.6636 C.ar    1  UNL1        0.0014
      9 C          64.5975   88.1919   15.8951 C.ar    1  UNL1        0.0014
     10 C          64.1101   89.1390   14.8390 C.ar    1  UNL1        0.0162
     11 C          63.5554   88.6056   13.5514 C.ar    1  UNL1        0.0679
     12 N          63.1270   89.7155   12.6378 N.am    1  UNL1       -0.2517
     13 C          62.5254   89.6190   11.2671 C.2     1  UNL1        0.2493
     14 O          62.2029   90.9254   10.6044 O.2     1  UNL1       -0.2727
     15 C          60.1287   88.4400    8.9089 C.2     1  UNL1        0.2371
     16 O          59.2569   88.0135   10.0527 O.2     1  UNL1       -0.2737
     17 N          61.6021   88.6276    9.1183 N.am    1  UNL1       -0.2959
     18 H          62.1743   88.9075    8.3677 H       1  UNL1        0.1499
     19 C          59.5271   88.6789    7.5558 C.3     1  UNL1        0.1316
     20 C          58.7261   87.5994    6.8900 C.3     1  UNL1        0.0270
     21 C          58.8479   90.3821    5.7152 C.3     1  UNL1        0.0862
     22 N          59.7264   89.9971    6.8685 N.3     1  UNL1       -0.2902
     23 H          59.6128   90.7199    7.5792 H       1  UNL1        0.1237
     24 C          62.5573   84.0604   11.0438 C.3     1  UNL1        0.2357
     25 S          63.1750   82.7205   10.7731 S.O2    1  UNL1        0.0007
     26 C          63.7927   81.3807   10.5025 C.3     1  UNL1        0.1766
     27 O          64.1026   83.3496    9.7761 O.2     1  UNL1       -0.1725
     28 O          62.2475   82.0915   11.7701 O.2     1  UNL1       -0.1725
     29 C          63.3265   91.1057   13.1646 C.3     1  UNL1        0.1278
     30 C          64.7106   91.6079   13.4508 C.ar    1  UNL1        0.0320
     31 C          65.1705   91.7721   14.8691 C.ar    1  UNL1        0.1363
     32 C          66.5546   92.2743   15.1554 C.ar    1  UNL1        0.0366
     33 C          67.4789   92.6124   14.0233 C.ar    1  UNL1        0.0031
     34 C          67.0190   92.4482   12.6050 C.ar    1  UNL1        0.0004
     35 C          67.9432   92.7863   11.4730 C.ar    1  UNL1        0.0067
     36 C          67.4833   92.6222   10.0547 C.ar    1  UNL1        0.0346
     37 BR         68.4075   92.9603    8.9227 Br      1  UNL1       -0.0490
     38 C          66.0991   92.1199    9.7684 C.ar    1  UNL1        0.0067
     39 C          65.1750   91.7819   10.9005 C.ar    1  UNL1        0.0003
     40 C          65.6348   91.9460   12.3187 C.ar    1  UNL1        0.0006
     41 O          64.2463   91.4340   16.0011 O.3     1  UNL1       -0.4717
     42 C          63.8692   92.1221   17.2795 C.3     1  UNL1        0.2525
@<TRIPOS>BOND
     1    21    22    1
     2    22    19    1
     3    19    20    1
     4    19    15    1
     5    15    16    2
     6    15    17   am
     7     1    17    1
     8     1     2    1
     9     2     3    1
    10     3     4   am
    11     4     5    2
    12     4    24    1
    13    24    25    1
    14    25    26    1
    15    25    27    2
    16    25    28    2
    17     3     6    1
    18     6     7   ar
    19     7     8   ar
    20     8     9   ar
    21     9    10   ar
    22    10    11   ar
    23    11    12    1
    24    12    29    1
    25    29    30    1
    26    30    31   ar
    27    31    41    1
    28    41    42    1
    29    31    32   ar
    30    32    33   ar
    31    33    34   ar
    32    34    35   ar
    33    35    36   ar
    34    36    37    1
    35    36    38   ar
    36    38    39   ar
    37    39    40   ar
    38    12    13   am
    39    13    14    2
    40    13     1    1
    41    11     6   ar
    42    40    30   ar
    43    40    34   ar
    44    22    23    1
    45    17    18    1
@<TRIPOS>MOLECULE
*****
 42 45 0 0 0
SMALL
GASTEIGER

@<TRIPOS>ATOM
      1 C          62.1678   86.6077   10.5530 C.3     1  UNL1        0.1695
      2 C          62.3049   85.2810   11.2393 C.3     1  UNL1        0.1272
      3 N          62.9554   84.9716   12.5550 N.am    1  UNL1       -0.2538
      4 C          62.9282   83.5308   12.9716 C.2     1  UNL1        0.2535
      5 O          63.5512   83.1138   14.2709 O.2     1  UNL1       -0.2726
      6 C          63.6295   85.9123   13.5093 C.ar    1  UNL1        0.0676
      7 C          64.1499   85.1891   14.7161 C.ar    1  UNL1        0.0162
      8 C          64.8603   85.9486   15.7970 C.ar    1  UNL1        0.0014
      9 C          65.0504   87.4311   15.6712 C.ar    1  UNL1        0.0014
     10 C          64.5301   88.1543   14.4645 C.ar    1  UNL1        0.0162
     11 C          63.8196   87.3949   13.3836 C.ar    1  UNL1        0.0679
     12 N          63.3825   88.3029   12.2724 N.am    1  UNL1       -0.2517
     13 C          62.6474   87.9526   11.0127 C.2     1  UNL1        0.2493
     14 O          62.3530   89.0986   10.0909 O.2     1  UNL1       -0.2727
     15 C          60.0978   87.2072    9.1019 C.2     1  UNL1        0.2371
     16 O          59.4489   87.8486   10.2926 O.2     1  UNL1       -0.2737
     17 N          61.4572   86.5868    9.2321 N.am    1  UNL1       -0.2959
     18 H          61.8831   86.1658    8.4507 H       1  UNL1        0.1499
     19 C          59.3872   87.1863    7.7811 C.3     1  UNL1        0.1316
     20 C          59.4754   85.9747    6.9011 C.3     1  UNL1        0.0270
     21 C          59.2561   89.4934    6.5938 C.3     1  UNL1        0.0862
     22 N          58.5883   88.3768    7.3403 N.3     1  UNL1       -0.2902
     23 H          57.8430   88.0252    6.7392 H       1  UNL1        0.1237
     24 C          62.2779   82.5070   12.0889 C.3     1  UNL1        0.2357
     25 S          62.4024   81.0482   12.4148 S.O2    1  UNL1        0.0007
     26 C          62.5269   79.5893   12.7406 C.3     1  UNL1        0.1766
     27 O          63.4286   80.8938   11.3316 O.2     1  UNL1       -0.1725
     28 O          61.3762   81.2025   13.4979 O.2     1  UNL1       -0.1725
     29 C          63.7260   89.7529   12.4437 C.3     1  UNL1        0.1278
     30 C          63.8258   90.3427   13.8194 C.ar    1  UNL1        0.0320
     31 C          62.6893   90.1878   14.7859 C.ar    1  UNL1        0.1363
     32 C          62.7890   90.7775   16.1615 C.ar    1  UNL1        0.0366
     33 C          64.0252   91.5221   16.5705 C.ar    1  UNL1        0.0031
     34 C          65.1618   91.6770   15.6039 C.ar    1  UNL1        0.0004
     35 C          66.3980   92.4217   16.0129 C.ar    1  UNL1        0.0067
     36 C          67.5345   92.5765   15.0462 C.ar    1  UNL1        0.0346
     37 BR         68.7707   93.3211   15.4552 Br      1  UNL1       -0.0490
     38 C          67.4348   91.9868   13.6706 C.ar    1  UNL1        0.0067
     39 C          66.1985   91.2422   13.2617 C.ar    1  UNL1        0.0003
     40 C          65.0621   91.0873   14.2282 C.ar    1  UNL1        0.0006
     41 O          61.4530   89.4432   14.3770 O.3     1  UNL1       -0.4717
     42 C          60.4168   89.6491   13.3122 C.3     1  UNL1        0.2525
@<TRIPOS>BOND
     1    21    22    1
     2    22    19    1
     3    19    20    1
     4    19    15    1
     5    15    16    2
     6    15    17   am
     7     1    17    1
     8     1     2    1
     9     2     3    1
    10     3     4   am
    11     4     5    2
    12     4    24    1
    13    24    25    1
    14    25    26    1
    15    25    27    2
    16    25    28    2
    17     3     6    1
    18     6     7   ar
    19     7     8   ar
    20     8     9   ar
    21     9    10   ar
    22    10    11   ar
    23    11    12    1
    24    12    29    1
    25    29    30    1
    26    30    31   ar
    27    31    41    1
    28    41    42    1
    29    31    32   ar
    30    32    33   ar
    31    33    34   ar
    32    34    35   ar
    33    35    36   ar
    34    36    37    1
    35    36    38   ar
    36    38    39   ar
    37    39    40   ar
    38    12    13   am
    39    13    14    2
    40    13     1    1
    41    11     6   ar
    42    40    30   ar
    43    40    34   ar
    44    22    23    1
    45    17    18    1
