@<TRIPOS>MOLECULE
*****
 35 39 0 0 0
SMALL
GASTEIGER

@<TRIPOS>ATOM
      1 C          61.9925   93.3344    1.8909 C.ar    1  UNL1        0.0291
      2 C          60.5524   93.6521    2.1649 C.ar    1  UNL1        0.0036
      3 C          59.7962   92.8729    3.2000 C.ar    1  UNL1        0.0152
      4 C          60.4802   91.7761    3.9609 C.ar    1  UNL1        0.0593
      5 C          61.9204   91.4585    3.6869 C.ar    1  UNL1        0.0446
      6 C          62.6765   92.2376    2.6519 C.ar    1  UNL1        0.1414
      7 F          64.1167   91.9199    2.3778 F       1  UNL1       -0.2041
      8 C          64.2608   95.6717   -1.2141 C.ar    1  UNL1        0.1178
      9 C          63.7144   94.3152   -1.5476 C.ar    1  UNL1        0.0221
     10 C          62.9583   93.5361   -0.5125 C.ar    1  UNL1        0.0033
     11 C          62.7486   94.1136    0.8559 C.ar    1  UNL1        0.0213
     12 C          63.2950   95.4701    1.1893 C.ar    1  UNL1        0.0990
     13 N          64.0511   96.2492    0.1543 N.ar    1  UNL1       -0.2409
     14 C          65.0170   96.4509   -2.2492 C.2     1  UNL1        0.2132
     15 O          66.4432   96.8426   -1.9993 O.2     1  UNL1       -0.2877
     16 C          64.3469   96.8383   -3.5340 C.3     1  UNL1        0.1778
     17 C          62.2068   94.6418   -4.6497 C.3     1  UNL1        0.0517
     18 C          63.5323   94.9743   -5.2682 C.ar    1  UNL1        0.0580
     19 C          64.1068   94.3557   -6.5081 C.ar    1  UNL1        0.1129
     20 N          65.4456   94.9830   -6.7615 N.ar    1  UNL1       -0.2297
     21 C          65.6985   95.9894   -5.6783 C.ar    1  UNL1        0.1209
     22 C          66.9195   96.8499   -5.5419 C.3     1  UNL1        0.0718
     23 N          64.5160   95.9839   -4.7554 N.ar    1  UNL1       -0.3109
     24 N          59.7242   90.9970    4.9959 N.am    1  UNL1       -0.2212
     25 C          60.2589   89.8495    5.8006 C.3     1  UNL1        0.1471
     26 C          59.1658   89.3719    6.7100 C.3     1  UNL1        0.2149
     27 O          57.9555   90.2241    6.4673 O.3     1  UNL1       -0.4342
     28 C          58.3006   91.2285    5.4080 C.2     1  UNL1        0.4088
     29 O          57.3831   92.2797    4.8574 O.2     1  UNL1       -0.2258
     30 C          59.2655   88.2406    7.6899 C.3     1  UNL1        0.1745
     31 N          59.8948   88.4650    9.0330 N.ar    1  UNL1       -0.2264
     32 C          60.2349   89.7956    9.6360 C.ar    1  UNL1        0.1193
     33 C          60.8447   89.5511   10.9845 C.ar    1  UNL1        0.1441
     34 N          60.8814   88.0693   11.2148 N.ar    1  UNL1       -0.1271
     35 N          60.2943   87.3980   10.0087 N.ar    1  UNL1       -0.0636
@<TRIPOS>BOND
     1    17    18    1
     2    18    19   ar
     3    19    20   ar
     4    20    21   ar
     5    21    22    1
     6    21    23   ar
     7    23    16    1
     8    16    14    1
     9    14    15    2
    10    14     8    1
    11     8     9   ar
    12     9    10   ar
    13    10    11   ar
    14    11     1    1
    15     1     2   ar
    16     2     3   ar
    17     3     4   ar
    18     4    24    1
    19    24    25    1
    20    25    26    1
    21    26    30    1
    22    30    31    1
    23    31    32   ar
    24    32    33   ar
    25    33    34   ar
    26    34    35   ar
    27    26    27    1
    28    27    28    1
    29    28    29    2
    30     4     5   ar
    31     5     6   ar
    32     6     7    1
    33    11    12   ar
    34    12    13   ar
    35    23    18   ar
    36    13     8   ar
    37     6     1   ar
    38    28    24   am
    39    35    31   ar
@<TRIPOS>MOLECULE
*****
 35 39 0 0 0
SMALL
GASTEIGER

@<TRIPOS>ATOM
      1 C          61.0661   87.1873    8.7908 C.ar    1  UNL1        0.0291
      2 C          61.1942   88.6541    9.0768 C.ar    1  UNL1        0.0036
      3 C          60.5477   89.6552    8.1657 C.ar    1  UNL1        0.0152
      4 C          59.7731   89.1892    6.9686 C.ar    1  UNL1        0.0593
      5 C          59.6451   87.7223    6.6827 C.ar    1  UNL1        0.0446
      6 C          60.2916   86.7213    7.5937 C.ar    1  UNL1        0.1414
      7 F          60.1635   85.2544    7.3078 F       1  UNL1       -0.2041
      8 C          63.0057   84.1842   11.5239 C.ar    1  UNL1        0.1178
      9 C          63.3585   84.2092   10.0662 C.ar    1  UNL1        0.0221
     10 C          62.7120   85.2102    9.1552 C.ar    1  UNL1        0.0033
     11 C          61.7127   86.1862    9.7019 C.ar    1  UNL1        0.0213
     12 C          61.3599   86.1612   11.1596 C.ar    1  UNL1        0.0990
     13 N          62.0065   85.1602   12.0705 N.ar    1  UNL1       -0.2409
     14 C          63.6523   83.1832   12.4349 C.2     1  UNL1        0.2132
     15 O          63.4990   81.7155   12.1660 O.2     1  UNL1       -0.2877
     16 C          64.4521   83.6499   13.6149 C.3     1  UNL1        0.1778
     17 C          65.4730   86.3997   15.0452 C.3     1  UNL1        0.0517
     18 C          64.2416   85.6229   15.4060 C.ar    1  UNL1        0.0580
     19 C          63.2633   85.9737   16.4877 C.ar    1  UNL1        0.1129
     20 N          62.1894   84.9264   16.4988 N.ar    1  UNL1       -0.2297
     21 C          62.5040   83.9284   15.4239 C.ar    1  UNL1        0.1209
     22 C          61.6928   82.7134   15.0841 C.3     1  UNL1        0.0718
     23 N          63.7724   84.3590   14.7487 N.ar    1  UNL1       -0.3109
     24 N          59.1266   90.1902    6.0576 N.am    1  UNL1       -0.2212
     25 C          59.8414   91.1543    5.1579 C.3     1  UNL1        0.1471
     26 C          58.8084   91.9628    4.4305 C.3     1  UNL1        0.2149
     27 O          57.4549   91.4982    4.8806 O.3     1  UNL1       -0.4342
     28 C          57.6516   90.4027    5.8862 C.2     1  UNL1        0.4088
     29 O          56.5643   89.6516    6.5957 O.2     1  UNL1       -0.2258
     30 C          59.0808   93.0456    3.4289 C.3     1  UNL1        0.1745
     31 N          60.1078   92.8340    2.3563 N.ar    1  UNL1       -0.2264
     32 C          59.8354   92.7140    0.8862 C.ar    1  UNL1        0.1193
     33 C          61.1468   92.5111    0.1869 C.ar    1  UNL1        0.1441
     34 N          62.2297   92.5057    1.2248 N.ar    1  UNL1       -0.1271
     35 N          61.5876   92.7053    2.5656 N.ar    1  UNL1       -0.0636
@<TRIPOS>BOND
     1    17    18    1
     2    18    19   ar
     3    19    20   ar
     4    20    21   ar
     5    21    22    1
     6    21    23   ar
     7    23    16    1
     8    16    14    1
     9    14    15    2
    10    14     8    1
    11     8     9   ar
    12     9    10   ar
    13    10    11   ar
    14    11     1    1
    15     1     2   ar
    16     2     3   ar
    17     3     4   ar
    18     4    24    1
    19    24    25    1
    20    25    26    1
    21    26    30    1
    22    30    31    1
    23    31    32   ar
    24    32    33   ar
    25    33    34   ar
    26    34    35   ar
    27    26    27    1
    28    27    28    1
    29    28    29    2
    30     4     5   ar
    31     5     6   ar
    32     6     7    1
    33    11    12   ar
    34    12    13   ar
    35    23    18   ar
    36    13     8   ar
    37     6     1   ar
    38    28    24   am
    39    35    31   ar
@<TRIPOS>MOLECULE
*****
 35 39 0 0 0
SMALL
GASTEIGER

@<TRIPOS>ATOM
      1 C          60.9371   87.9353    9.2040 C.ar    1  UNL1        0.0291
      2 C          61.0685   89.4285    9.2594 C.ar    1  UNL1        0.0036
      3 C          60.4900   90.2735    8.1633 C.ar    1  UNL1        0.0152
      4 C          59.7801   89.6253    7.0118 C.ar    1  UNL1        0.0593
      5 C          59.6488   88.1321    6.9564 C.ar    1  UNL1        0.0446
      6 C          60.2273   87.2871    8.0525 C.ar    1  UNL1        0.1414
      7 F          60.0959   85.7938    7.9971 F       1  UNL1       -0.2041
      8 C          62.6725   85.4002   12.4920 C.ar    1  UNL1        0.1178
      9 C          61.8202   84.7709   11.4303 C.ar    1  UNL1        0.0221
     10 C          61.2417   85.6159   10.3343 C.ar    1  UNL1        0.0033
     11 C          61.5156   87.0903   10.3000 C.ar    1  UNL1        0.0213
     12 C          62.3680   87.7196   11.3618 C.ar    1  UNL1        0.0990
     13 N          62.9464   86.8746   12.4578 N.ar    1  UNL1       -0.2409
     14 C          63.2511   84.5552   13.5881 C.2     1  UNL1        0.2132
     15 O          62.8963   84.8360   15.0182 O.2     1  UNL1       -0.2877
     16 C          64.1843   83.4294   13.2540 C.3     1  UNL1        0.1778
     17 C          64.5700   83.1439   10.0262 C.3     1  UNL1        0.0517
     18 C          63.8854   82.1556   10.9231 C.ar    1  UNL1        0.0580
     19 C          63.2579   80.8625   10.4938 C.ar    1  UNL1        0.1129
     20 N          62.6928   80.1945   11.7122 N.ar    1  UNL1       -0.2297
     21 C          62.9710   81.0749   12.8946 C.ar    1  UNL1        0.1209
     22 C          62.5807   80.7927   14.3151 C.3     1  UNL1        0.0718
     23 N          63.7081   82.2868   12.4067 N.ar    1  UNL1       -0.3109
     24 N          59.2016   90.4703    5.9158 N.am    1  UNL1       -0.2212
     25 C          59.9796   91.3032    4.9406 C.3     1  UNL1        0.1471
     26 C          59.0024   91.9784    4.0246 C.3     1  UNL1        0.2149
     27 O          57.6204   91.5627    4.4336 O.3     1  UNL1       -0.4342
     28 C          57.7435   90.6306    5.6024 C.2     1  UNL1        0.4088
     29 O          56.6079   89.9742    6.3301 O.2     1  UNL1       -0.2258
     30 C          59.3467   92.9063    2.8975 C.3     1  UNL1        0.1745
     31 N          60.7566   92.9800    2.3907 N.ar    1  UNL1       -0.2264
     32 C          61.2334   93.7968    1.2265 C.ar    1  UNL1        0.1193
     33 C          62.7086   93.5714    1.0754 C.ar    1  UNL1        0.1441
     34 N          63.1436   92.6152    2.1462 N.ar    1  UNL1       -0.1271
     35 N          61.9371   92.2497    2.9591 N.ar    1  UNL1       -0.0636
@<TRIPOS>BOND
     1    17    18    1
     2    18    19   ar
     3    19    20   ar
     4    20    21   ar
     5    21    22    1
     6    21    23   ar
     7    23    16    1
     8    16    14    1
     9    14    15    2
    10    14     8    1
    11     8     9   ar
    12     9    10   ar
    13    10    11   ar
    14    11     1    1
    15     1     2   ar
    16     2     3   ar
    17     3     4   ar
    18     4    24    1
    19    24    25    1
    20    25    26    1
    21    26    30    1
    22    30    31    1
    23    31    32   ar
    24    32    33   ar
    25    33    34   ar
    26    34    35   ar
    27    26    27    1
    28    27    28    1
    29    28    29    2
    30     4     5   ar
    31     5     6   ar
    32     6     7    1
    33    11    12   ar
    34    12    13   ar
    35    23    18   ar
    36    13     8   ar
    37     6     1   ar
    38    28    24   am
    39    35    31   ar
@<TRIPOS>MOLECULE
*****
 35 39 0 0 0
SMALL
GASTEIGER

@<TRIPOS>ATOM
      1 C          64.4527   89.1265   13.5636 C.ar    1  UNL1        0.0291
      2 C          65.4371   89.7837   14.4849 C.ar    1  UNL1        0.0036
      3 C          65.8648   91.2002   14.2386 C.ar    1  UNL1        0.0152
      4 C          65.3081   91.9594   13.0709 C.ar    1  UNL1        0.0593
      5 C          64.3236   91.3021   12.1495 C.ar    1  UNL1        0.0446
      6 C          63.8960   89.8857   12.3958 C.ar    1  UNL1        0.1414
      7 F          62.9115   89.2284   11.4744 F       1  UNL1       -0.2041
      8 C          63.1696   84.8771   14.3026 C.ar    1  UNL1        0.1178
      9 C          63.9952   85.5999   15.3253 C.ar    1  UNL1        0.0221
     10 C          64.4229   87.0163   15.0790 C.ar    1  UNL1        0.0033
     11 C          64.0250   87.7099   13.8099 C.ar    1  UNL1        0.0213
     12 C          63.1995   86.9871   12.7872 C.ar    1  UNL1        0.0990
     13 N          62.7718   85.5707   13.0335 N.ar    1  UNL1       -0.2409
     14 C          62.7419   83.4605   14.5490 C.2     1  UNL1        0.2132
     15 O          61.4306   83.1791   15.2208 O.2     1  UNL1       -0.2877
     16 C          63.6255   82.3255   14.1235 C.3     1  UNL1        0.1778
     17 C          64.5953   83.3710   11.1882 C.3     1  UNL1        0.0517
     18 C          63.8256   82.1140   11.4663 C.ar    1  UNL1        0.0580
     19 C          63.3666   81.1168   10.4441 C.ar    1  UNL1        0.1129
     20 N          62.6371   80.0199   11.1616 N.ar    1  UNL1       -0.2297
     21 C          62.6453   80.3392   12.6272 C.ar    1  UNL1        0.1209
     22 C          62.0274   79.5099   13.7137 C.3     1  UNL1        0.0718
     23 N          63.3798   81.6334   12.8155 N.ar    1  UNL1       -0.3109
     24 N          65.7358   93.3759   12.8245 N.am    1  UNL1       -0.2212
     25 C          65.4755   94.1717   11.5799 C.3     1  UNL1        0.1471
     26 C          66.0777   95.5329   11.7657 C.3     1  UNL1        0.2149
     27 O          66.7101   95.5783   13.1251 O.3     1  UNL1       -0.4342
     28 C          66.4988   94.2452   13.7795 C.2     1  UNL1        0.4088
     29 O          66.9680   93.8508   15.1485 O.2     1  UNL1       -0.2258
     30 C          66.0520   96.6521   10.7673 C.3     1  UNL1        0.1745
     31 N          66.1415   96.3510    9.3006 N.ar    1  UNL1       -0.2264
     32 C          67.1786   95.4931    8.6383 C.ar    1  UNL1        0.1193
     33 C          66.8877   95.4669    7.1671 C.ar    1  UNL1        0.1441
     34 N          65.6709   96.3085    6.9200 N.ar    1  UNL1       -0.1271
     35 N          65.2097   96.8549    8.2386 N.ar    1  UNL1       -0.0636
@<TRIPOS>BOND
     1    17    18    1
     2    18    19   ar
     3    19    20   ar
     4    20    21   ar
     5    21    22    1
     6    21    23   ar
     7    23    16    1
     8    16    14    1
     9    14    15    2
    10    14     8    1
    11     8     9   ar
    12     9    10   ar
    13    10    11   ar
    14    11     1    1
    15     1     2   ar
    16     2     3   ar
    17     3     4   ar
    18     4    24    1
    19    24    25    1
    20    25    26    1
    21    26    30    1
    22    30    31    1
    23    31    32   ar
    24    32    33   ar
    25    33    34   ar
    26    34    35   ar
    27    26    27    1
    28    27    28    1
    29    28    29    2
    30     4     5   ar
    31     5     6   ar
    32     6     7    1
    33    11    12   ar
    34    12    13   ar
    35    23    18   ar
    36    13     8   ar
    37     6     1   ar
    38    28    24   am
    39    35    31   ar
@<TRIPOS>MOLECULE
*****
 35 39 0 0 0
SMALL
GASTEIGER

@<TRIPOS>ATOM
      1 C          62.0299   93.3469    1.7305 C.ar    1  UNL1        0.0291
      2 C          60.6117   93.7227    2.0423 C.ar    1  UNL1        0.0036
      3 C          59.8590   92.9884    3.1120 C.ar    1  UNL1        0.0152
      4 C          60.5246   91.8783    3.8700 C.ar    1  UNL1        0.0593
      5 C          61.9429   91.5025    3.5582 C.ar    1  UNL1        0.0446
      6 C          62.6955   92.2367    2.4885 C.ar    1  UNL1        0.1414
      7 F          64.1139   91.8609    2.1766 F       1  UNL1       -0.2041
      8 C          64.2878   95.5497   -1.4788 C.ar    1  UNL1        0.1178
      9 C          62.9171   95.0104   -1.7618 C.ar    1  UNL1        0.0221
     10 C          62.1644   94.2761   -0.6920 C.ar    1  UNL1        0.0033
     11 C          62.7826   94.0812    0.6607 C.ar    1  UNL1        0.0213
     12 C          64.1534   94.6204    0.9437 C.ar    1  UNL1        0.0990
     13 N          64.9060   95.3547   -0.1261 N.ar    1  UNL1       -0.2409
     14 C          65.0405   96.2839   -2.5486 C.2     1  UNL1        0.2132
     15 O          66.4506   96.7316   -2.3008 O.2     1  UNL1       -0.2877
     16 C          64.3832   96.5705   -3.8660 C.3     1  UNL1        0.1778
     17 C          67.0318   96.8480   -5.7521 C.3     1  UNL1        0.0517
     18 C          65.9223   95.8545   -5.9309 C.ar    1  UNL1        0.0580
     19 C          65.8354   94.8142   -7.0080 C.ar    1  UNL1        0.1129
     20 N          64.5642   94.0436   -6.8067 N.ar    1  UNL1       -0.2297
     21 C          63.8655   94.6078   -5.6052 C.ar    1  UNL1        0.1209
     22 C          62.5572   94.1357   -5.0436 C.3     1  UNL1        0.0718
     23 N          64.7049   95.7270   -5.0640 N.ar    1  UNL1       -0.3109
     24 N          59.7720   91.1440    4.9397 N.am    1  UNL1       -0.2212
     25 C          60.3736   90.2650    5.9959 C.3     1  UNL1        0.1471
     26 C          59.2590   89.7376    6.8501 C.3     1  UNL1        0.2149
     27 O          57.9686   90.2906    6.3217 O.3     1  UNL1       -0.4342
     28 C          58.2857   91.1598    5.1411 C.2     1  UNL1        0.4088
     29 O          57.2910   91.9126    4.3081 O.2     1  UNL1       -0.2258
     30 C          59.4086   88.8185    8.0260 C.3     1  UNL1        0.1745
     31 N          60.0034   87.4540    7.8406 N.ar    1  UNL1       -0.2264
     32 C          61.2349   86.9296    8.5175 C.ar    1  UNL1        0.1193
     33 C          61.4636   85.5258    8.0409 C.ar    1  UNL1        0.1441
     34 N          60.3734   85.1826    7.0695 N.ar    1  UNL1       -0.1271
     35 N          59.4709   86.3743    6.9457 N.ar    1  UNL1       -0.0636
@<TRIPOS>BOND
     1    17    18    1
     2    18    19   ar
     3    19    20   ar
     4    20    21   ar
     5    21    22    1
     6    21    23   ar
     7    23    16    1
     8    16    14    1
     9    14    15    2
    10    14     8    1
    11     8     9   ar
    12     9    10   ar
    13    10    11   ar
    14    11     1    1
    15     1     2   ar
    16     2     3   ar
    17     3     4   ar
    18     4    24    1
    19    24    25    1
    20    25    26    1
    21    26    30    1
    22    30    31    1
    23    31    32   ar
    24    32    33   ar
    25    33    34   ar
    26    34    35   ar
    27    26    27    1
    28    27    28    1
    29    28    29    2
    30     4     5   ar
    31     5     6   ar
    32     6     7    1
    33    11    12   ar
    34    12    13   ar
    35    23    18   ar
    36    13     8   ar
    37     6     1   ar
    38    28    24   am
    39    35    31   ar
@<TRIPOS>MOLECULE
*****
 35 39 0 0 0
SMALL
GASTEIGER

@<TRIPOS>ATOM
      1 C          61.0943   87.1454    8.7481 C.ar    1  UNL1        0.0291
      2 C          60.2936   86.6886    7.5648 C.ar    1  UNL1        0.0036
      3 C          59.6374   87.6969    6.6688 C.ar    1  UNL1        0.0152
      4 C          59.7819   89.1620    6.9561 C.ar    1  UNL1        0.0593
      5 C          60.5827   89.6188    8.1395 C.ar    1  UNL1        0.0446
      6 C          61.2388   88.6105    9.0354 C.ar    1  UNL1        0.1414
      7 F          62.0396   89.0672   10.2188 F       1  UNL1       -0.2041
      8 C          63.0627   84.1205   11.4360 C.ar    1  UNL1        0.1178
      9 C          62.0391   85.0650   11.9930 C.ar    1  UNL1        0.0221
     10 C          61.3830   86.0732   11.0970 C.ar    1  UNL1        0.0033
     11 C          61.7505   86.1370    9.6441 C.ar    1  UNL1        0.0213
     12 C          62.7741   85.1926    9.0872 C.ar    1  UNL1        0.0990
     13 N          63.4302   84.1843    9.9832 N.ar    1  UNL1       -0.2409
     14 C          63.7189   83.1122   12.3320 C.2     1  UNL1        0.2132
     15 O          63.5915   81.6478   12.0330 O.2     1  UNL1       -0.2877
     16 C          64.5025   83.5682   13.5270 C.3     1  UNL1        0.1778
     17 C          61.7603   82.5878   14.9997 C.3     1  UNL1        0.0517
     18 C          62.5476   83.8205   15.3326 C.ar    1  UNL1        0.0580
     19 C          62.2126   84.8189   16.4007 C.ar    1  UNL1        0.1129
     20 N          63.2661   85.8867   16.3839 N.ar    1  UNL1       -0.2297
     21 C          64.2521   85.5481   15.3053 C.ar    1  UNL1        0.1209
     22 C          65.4686   86.3463   14.9406 C.3     1  UNL1        0.0718
     23 N          63.8080   84.2711   14.6556 N.ar    1  UNL1       -0.3109
     24 N          59.1258   90.1704    6.0602 N.am    1  UNL1       -0.2212
     25 C          59.8312   91.1464    5.1659 C.3     1  UNL1        0.1471
     26 C          58.7904   91.9590    4.4543 C.3     1  UNL1        0.2149
     27 O          57.4417   91.4851    4.9088 O.3     1  UNL1       -0.4342
     28 C          57.6490   90.3797    5.9013 C.2     1  UNL1        0.4088
     29 O          56.5691   89.6175    6.6103 O.2     1  UNL1       -0.2258
     30 C          59.0523   93.0532    3.4623 C.3     1  UNL1        0.1745
     31 N          60.0547   92.8472    2.3656 N.ar    1  UNL1       -0.2264
     32 C          59.7481   92.7262    0.9023 C.ar    1  UNL1        0.1193
     33 C          61.0435   92.5303    0.1719 C.ar    1  UNL1        0.1441
     34 N          62.1508   92.5302    1.1839 N.ar    1  UNL1       -0.1271
     35 N          61.5397   92.7261    2.5396 N.ar    1  UNL1       -0.0636
@<TRIPOS>BOND
     1    17    18    1
     2    18    19   ar
     3    19    20   ar
     4    20    21   ar
     5    21    22    1
     6    21    23   ar
     7    23    16    1
     8    16    14    1
     9    14    15    2
    10    14     8    1
    11     8     9   ar
    12     9    10   ar
    13    10    11   ar
    14    11     1    1
    15     1     2   ar
    16     2     3   ar
    17     3     4   ar
    18     4    24    1
    19    24    25    1
    20    25    26    1
    21    26    30    1
    22    30    31    1
    23    31    32   ar
    24    32    33   ar
    25    33    34   ar
    26    34    35   ar
    27    26    27    1
    28    27    28    1
    29    28    29    2
    30     4     5   ar
    31     5     6   ar
    32     6     7    1
    33    11    12   ar
    34    12    13   ar
    35    23    18   ar
    36    13     8   ar
    37     6     1   ar
    38    28    24   am
    39    35    31   ar
@<TRIPOS>MOLECULE
*****
 35 39 0 0 0
SMALL
GASTEIGER

@<TRIPOS>ATOM
      1 C          59.6474   92.0122    3.9306 C.ar    1  UNL1        0.0291
      2 C          58.3733   91.6894    4.6533 C.ar    1  UNL1        0.0036
      3 C          58.3941   90.7629    5.8328 C.ar    1  UNL1        0.0152
      4 C          59.6891   90.1593    6.2896 C.ar    1  UNL1        0.0593
      5 C          60.9633   90.4822    5.5669 C.ar    1  UNL1        0.0446
      6 C          60.9424   91.4087    4.3874 C.ar    1  UNL1        0.1414
      7 F          62.2166   91.7316    3.6646 F       1  UNL1       -0.2041
      8 C          59.5849   94.7915    0.3920 C.ar    1  UNL1        0.1178
      9 C          59.0462   93.3978    0.2606 C.ar    1  UNL1        0.0221
     10 C          59.0671   92.4714    1.4401 C.ar    1  UNL1        0.0033
     11 C          59.6266   92.9387    2.7510 C.ar    1  UNL1        0.0213
     12 C          60.1652   94.3325    2.8824 C.ar    1  UNL1        0.0990
     13 N          60.1444   95.2589    1.7029 N.ar    1  UNL1       -0.2409
     14 C          59.5640   95.7180   -0.7876 C.2     1  UNL1        0.2132
     15 O          58.2624   96.0590   -1.4505 O.2     1  UNL1       -0.2877
     16 C          60.8448   96.3034   -1.3042 C.3     1  UNL1        0.1778
     17 C          63.4025   96.6416    0.6940 C.3     1  UNL1        0.0517
     18 C          63.2702   95.6294   -0.4050 C.ar    1  UNL1        0.0580
     19 C          64.2902   94.5950   -0.7785 C.ar    1  UNL1        0.1129
     20 N          63.7449   93.8001   -1.9279 N.ar    1  UNL1       -0.2297
     21 C          62.3879   94.3434   -2.2647 C.ar    1  UNL1        0.1209
     22 C          61.4831   93.8438   -3.3519 C.3     1  UNL1        0.0718
     23 N          62.0945   95.4739   -1.3235 N.ar    1  UNL1       -0.3109
     24 N          59.7100   89.2329    7.4691 N.am    1  UNL1       -0.2212
     25 C          60.0805   89.6032    8.8747 C.3     1  UNL1        0.1471
     26 C          59.9636   88.3727    9.7244 C.3     1  UNL1        0.2149
     27 O          59.5207   87.2418    8.8440 O.3     1  UNL1       -0.4342
     28 C          59.3640   87.7735    7.4501 C.2     1  UNL1        0.4088
     29 O          58.9364   86.9843    6.2484 O.2     1  UNL1       -0.2258
     30 C          60.2407   88.2878   11.1961 C.3     1  UNL1        0.1745
     31 N          61.5093   88.8613   11.7547 N.ar    1  UNL1       -0.2264
     32 C          61.8253   90.3196   11.9076 C.ar    1  UNL1        0.1193
     33 C          63.1958   90.4366   12.5058 C.ar    1  UNL1        0.1441
     34 N          63.7269   89.0506   12.7226 N.ar    1  UNL1       -0.1271
     35 N          62.6846   88.0770   12.2584 N.ar    1  UNL1       -0.0636
@<TRIPOS>BOND
     1    17    18    1
     2    18    19   ar
     3    19    20   ar
     4    20    21   ar
     5    21    22    1
     6    21    23   ar
     7    23    16    1
     8    16    14    1
     9    14    15    2
    10    14     8    1
    11     8     9   ar
    12     9    10   ar
    13    10    11   ar
    14    11     1    1
    15     1     2   ar
    16     2     3   ar
    17     3     4   ar
    18     4    24    1
    19    24    25    1
    20    25    26    1
    21    26    30    1
    22    30    31    1
    23    31    32   ar
    24    32    33   ar
    25    33    34   ar
    26    34    35   ar
    27    26    27    1
    28    27    28    1
    29    28    29    2
    30     4     5   ar
    31     5     6   ar
    32     6     7    1
    33    11    12   ar
    34    12    13   ar
    35    23    18   ar
    36    13     8   ar
    37     6     1   ar
    38    28    24   am
    39    35    31   ar
@<TRIPOS>MOLECULE
*****
 35 39 0 0 0
SMALL
GASTEIGER

@<TRIPOS>ATOM
      1 C          64.2623   88.7921   13.5894 C.ar    1  UNL1        0.0291
      2 C          64.6371   88.1854   14.9090 C.ar    1  UNL1        0.0036
      3 C          64.2314   86.7772   15.2294 C.ar    1  UNL1        0.0152
      4 C          63.4508   85.9759   14.2301 C.ar    1  UNL1        0.0593
      5 C          63.0760   86.5827   12.9105 C.ar    1  UNL1        0.0446
      6 C          63.4817   87.9908   12.5902 C.ar    1  UNL1        0.1414
      7 F          63.1069   88.5976   11.2705 F       1  UNL1       -0.2041
      8 C          65.4795   93.0164   12.6285 C.ar    1  UNL1        0.1178
      9 C          66.1308   92.2889   13.7671 C.ar    1  UNL1        0.0221
     10 C          65.7250   90.8808   14.0874 C.ar    1  UNL1        0.0033
     11 C          64.6680   90.2003   13.2691 C.ar    1  UNL1        0.0213
     12 C          64.0168   90.9278   12.1305 C.ar    1  UNL1        0.0990
     13 N          64.4225   92.3359   11.8102 N.ar    1  UNL1       -0.2409
     14 C          65.8853   94.4246   12.3082 C.2     1  UNL1        0.2132
     15 O          66.5419   95.2728   13.3566 O.2     1  UNL1       -0.2877
     16 C          65.6343   94.9844   10.9394 C.3     1  UNL1        0.1778
     17 C          67.5320   92.3409   10.6949 C.3     1  UNL1        0.0517
     18 C          67.4577   93.4673    9.7071 C.ar    1  UNL1        0.0580
     19 C          68.2427   93.5763    8.4336 C.ar    1  UNL1        0.1129
     20 N          67.8556   94.8589    7.7588 N.ar    1  UNL1       -0.2297
     21 C          66.8313   95.5425    8.6154 C.ar    1  UNL1        0.1209
     22 C          66.1692   96.8556    8.3198 C.3     1  UNL1        0.0718
     23 N          66.5855   94.6824    9.8195 N.ar    1  UNL1       -0.3109
     24 N          63.0450   84.5678   14.5504 N.am    1  UNL1       -0.2212
     25 C          63.2321   83.3728   13.6631 C.3     1  UNL1        0.1471
     26 C          62.6836   82.1739   14.3785 C.3     1  UNL1        0.2149
     27 O          62.1577   82.6279   15.7080 O.3     1  UNL1       -0.4342
     28 C          62.3811   84.1074   15.8141 C.2     1  UNL1        0.4088
     29 O          62.0062   84.9742   16.9795 O.2     1  UNL1       -0.2258
     30 C          62.6645   80.7679   13.8563 C.3     1  UNL1        0.1745
     31 N          62.7900   80.5132   12.3834 N.ar    1  UNL1       -0.2264
     32 C          63.1523   81.5288   11.3407 C.ar    1  UNL1        0.1193
     33 C          63.1614   80.8413   10.0075 C.ar    1  UNL1        0.1441
     34 N          62.8047   79.4008   10.2263 N.ar    1  UNL1       -0.1271
     35 N          62.5751   79.1980   11.6947 N.ar    1  UNL1       -0.0636
@<TRIPOS>BOND
     1    17    18    1
     2    18    19   ar
     3    19    20   ar
     4    20    21   ar
     5    21    22    1
     6    21    23   ar
     7    23    16    1
     8    16    14    1
     9    14    15    2
    10    14     8    1
    11     8     9   ar
    12     9    10   ar
    13    10    11   ar
    14    11     1    1
    15     1     2   ar
    16     2     3   ar
    17     3     4   ar
    18     4    24    1
    19    24    25    1
    20    25    26    1
    21    26    30    1
    22    30    31    1
    23    31    32   ar
    24    32    33   ar
    25    33    34   ar
    26    34    35   ar
    27    26    27    1
    28    27    28    1
    29    28    29    2
    30     4     5   ar
    31     5     6   ar
    32     6     7    1
    33    11    12   ar
    34    12    13   ar
    35    23    18   ar
    36    13     8   ar
    37     6     1   ar
    38    28    24   am
    39    35    31   ar
@<TRIPOS>MOLECULE
*****
 35 39 0 0 0
SMALL
GASTEIGER

@<TRIPOS>ATOM
      1 C          59.8975   90.7060    5.6315 C.ar    1  UNL1        0.0291
      2 C          61.1193   91.0954    4.8535 C.ar    1  UNL1        0.0036
      3 C          60.9834   91.9123    3.6027 C.ar    1  UNL1        0.0152
      4 C          59.6255   92.3397    3.1300 C.ar    1  UNL1        0.0593
      5 C          58.4036   91.9503    3.9081 C.ar    1  UNL1        0.0446
      6 C          58.5396   91.1335    5.1588 C.ar    1  UNL1        0.1414
      7 F          57.3176   90.7440    5.9368 F       1  UNL1       -0.2041
      8 C          60.3052   88.2555    9.3836 C.ar    1  UNL1        0.1178
      9 C          59.5950   87.6878    8.1906 C.ar    1  UNL1        0.0221
     10 C          59.4591   88.5047    6.9399 C.ar    1  UNL1        0.0033
     11 C          60.0334   89.8892    6.8822 C.ar    1  UNL1        0.0213
     12 C          60.7437   90.4568    8.0752 C.ar    1  UNL1        0.0990
     13 N          60.8796   89.6400    9.3259 N.ar    1  UNL1       -0.2409
     14 C          60.4412   87.4386   10.6343 C.2     1  UNL1        0.2132
     15 O          59.6133   87.7702   11.8404 O.2     1  UNL1       -0.2877
     16 C          61.4050   86.2901   10.6790 C.3     1  UNL1        0.1778
     17 C          62.3867   83.5148   12.0873 C.3     1  UNL1        0.0517
     18 C          62.8321   84.8979   12.4596 C.ar    1  UNL1        0.0580
     19 C          63.8069   85.2482   13.5445 C.ar    1  UNL1        0.1129
     20 N          63.9582   86.7404   13.5677 N.ar    1  UNL1       -0.2297
     21 C          63.0768   87.3124   12.4971 C.ar    1  UNL1        0.1209
     22 C          62.9191   88.7675   12.1690 C.3     1  UNL1        0.0718
     23 N          62.3809   86.1736   11.8123 N.ar    1  UNL1       -0.3109
     24 N          59.4895   93.1566    1.8794 N.am    1  UNL1       -0.2212
     25 C          59.0373   92.6516    0.5413 C.3     1  UNL1        0.1471
     26 C          59.0501   93.8047   -0.4179 C.3     1  UNL1        0.2149
     27 O          59.5103   95.0224    0.3274 O.3     1  UNL1       -0.4342
     28 C          59.7819   94.6218    1.7472 C.2     1  UNL1        0.4088
     29 O          60.2616   95.5275    2.8424 O.2     1  UNL1       -0.2258
     30 C          58.6696   93.7498   -1.8678 C.3     1  UNL1        0.1745
     31 N          57.5960   92.8079   -2.3263 N.ar    1  UNL1       -0.2264
     32 C          57.5182   92.1469   -3.6705 C.ar    1  UNL1        0.1193
     33 C          56.2858   91.2921   -3.6960 C.ar    1  UNL1        0.1441
     34 N          55.6020   91.4248   -2.3676 N.ar    1  UNL1       -0.1271
     35 N          56.4117   92.3616   -1.5210 N.ar    1  UNL1       -0.0636
@<TRIPOS>BOND
     1    17    18    1
     2    18    19   ar
     3    19    20   ar
     4    20    21   ar
     5    21    22    1
     6    21    23   ar
     7    23    16    1
     8    16    14    1
     9    14    15    2
    10    14     8    1
    11     8     9   ar
    12     9    10   ar
    13    10    11   ar
    14    11     1    1
    15     1     2   ar
    16     2     3   ar
    17     3     4   ar
    18     4    24    1
    19    24    25    1
    20    25    26    1
    21    26    30    1
    22    30    31    1
    23    31    32   ar
    24    32    33   ar
    25    33    34   ar
    26    34    35   ar
    27    26    27    1
    28    27    28    1
    29    28    29    2
    30     4     5   ar
    31     5     6   ar
    32     6     7    1
    33    11    12   ar
    34    12    13   ar
    35    23    18   ar
    36    13     8   ar
    37     6     1   ar
    38    28    24   am
    39    35    31   ar
