@<TRIPOS>MOLECULE
*****
 66 70 0 0 0
SMALL
GASTEIGER

@<TRIPOS>ATOM
      1 C          63.1350   87.6254   16.6932 C.3     1  UNL1        0.1953
      2 O          63.1815   88.9816   16.0540 O.3     1  UNL1       -0.4497
      3 C          63.1551   89.9640   14.9208 C.2     1  UNL1        0.3188
      4 O          63.3194   91.2714   15.6376 O.2     1  UNL1       -0.2500
      5 C          63.0604   90.4027   13.4895 C.3     1  UNL1        0.1263
      6 C          63.1963   91.6751   13.9200 C.3     1  UNL1        0.0142
      7 C          62.9137   90.2219   12.0077 C.3     1  UNL1        0.1306
      8 C          62.7405   89.4530   10.7315 C.3     1  UNL1        0.0575
      9 C          62.7324   90.5479    9.7062 C.3     1  UNL1        0.0051
     10 C          62.5707   88.2287    9.8816 C.3     1  UNL1        0.1448
     11 C          62.4335   86.7608    9.6051 C.3     1  UNL1        0.1183
     12 C          62.2587   85.9042    8.3863 C.3     1  UNL1        0.0321
     13 C          62.3529   85.3031    9.9496 C.3     1  UNL1        0.0387
     14 C          62.3426   84.1077   10.8556 C.3     1  UNL1        0.0789
     15 C          62.1690   82.9799    9.8820 C.3     1  UNL1        0.0096
     16 C          62.4045   83.3813   12.1665 C.2     1  UNL1        0.2221
     17 O          62.2567   81.9513   11.7379 O.2     1  UNL1       -0.2751
     18 N          62.5279   83.2494   13.6555 N.am    1  UNL1       -0.3035
     19 C          62.6914   83.7349   15.0654 C.3     1  UNL1        0.1008
     20 C          62.6628   82.4521   15.8422 C.3     1  UNL1        0.0239
     21 C          62.8668   84.7538   16.1522 C.3     1  UNL1        0.1560
     22 O          62.9112   83.8946   17.3810 O.3     1  UNL1       -0.3803
     23 C          63.0237   86.1300   16.7279 C.3     1  UNL1        0.1509
     24 C          63.1913   86.7130   18.0998 C.3     1  UNL1        0.0356
     25 O          63.0379   85.0713   17.7905 O.3     1  UNL1       -0.3808
     26 H          62.4645   82.2750   13.7807 H       1  UNL1        0.1495
     27 H          62.8172   82.9630   17.1277 H       1  UNL1        0.2105
     28 H          62.9343   84.1989   17.3792 H       1  UNL1        0.2105
     29 C          62.6652   87.0828   19.1902 C.3     1  UNL1        0.0039
     30 C          63.2909   87.9604   18.1470 C.3     1  UNL1        0.0462
     31 O          62.3832   87.5767    8.3473 O.3     1  UNL1       -0.3535
     32 C          62.1824   87.0706    7.7651 C.3     1  UNL1        0.1740
     33 O          62.9777   91.6366   11.5131 O.3     1  UNL1       -0.3323
     34 C          64.3042   92.2609   11.1953 C.3     1  UNL1        0.2375
     35 C          64.3609   93.5866   10.4960 C.3     1  UNL1        0.0910
     36 C          65.6873   94.2109   10.1782 C.3     1  UNL1        0.1246
     37 C          66.6942   95.1977    9.6662 C.3     1  UNL1        0.0324
     38 C          66.9570   93.5093   10.5598 C.3     1  UNL1        0.1623
     39 O          68.2834   94.1334   10.2421 O.3     1  UNL1       -0.3796
     40 C          66.9003   92.1835   11.2592 C.3     1  UNL1        0.1468
     41 C          68.1700   91.4820   11.6408 C.3     1  UNL1        0.0348
     42 O          65.5739   91.5593   11.5770 O.3     1  UNL1       -0.3304
     43 H          68.9963   93.5544   10.5542 H       1  UNL1        0.2105
     44 O          64.7673   95.2551    9.6188 O.3     1  UNL1       -0.3532
     45 C          64.9616   96.6977    9.9811 C.3     1  UNL1        0.1740
     46 O          62.4919   88.8145    8.5030 O.3     1  UNL1       -0.3278
     47 C          61.1657   88.9297    7.8117 C.3     1  UNL1        0.2785
     48 O          59.9901   88.1413    8.3082 O.3     1  UNL1       -0.3302
     49 C          58.6639   88.2566    7.6169 C.3     1  UNL1        0.1198
     50 C          57.4884   87.4682    8.1134 C.3     1  UNL1        0.0322
     51 C          58.5133   89.1602    6.4292 C.3     1  UNL1        0.0534
     52 C          59.6889   89.9486    5.9326 C.3     1  UNL1        0.1245
     53 C          61.0151   89.8333    6.6240 C.3     1  UNL1        0.2426
     54 O          61.9877   90.7268    5.9128 O.2     1  UNL1       -0.4464
     55 C          61.2625   91.3942    4.7819 C.2     1  UNL1        0.2878
     56 N          61.8543   92.3711    3.8095 N.2     1  UNL1       -0.1980
     57 N          59.8418   90.9133    4.7942 N.pl3   1  UNL1       -0.2600
     58 C          58.7634   91.3247    3.8363 C.3     1  UNL1        0.1167
     59 C          61.0017   92.9593    2.7247 C.ar    1  UNL1        0.0859
     60 C          60.5073   94.3706    2.8415 C.ar    1  UNL1        0.0224
     61 C          59.6546   94.9589    1.7566 C.ar    1  UNL1        0.0384
     62 C          59.2964   94.1358    0.5549 C.ar    1  UNL1        0.1388
     63 C          59.7908   92.7244    0.4381 C.ar    1  UNL1        0.0384
     64 C          60.6434   92.1362    1.5230 C.ar    1  UNL1        0.0224
     65 O          58.4437   94.7240   -0.5300 O.3     1  UNL1       -0.4714
     66 C          57.2999   93.9355   -1.0955 C.3     1  UNL1        0.2525
@<TRIPOS>BOND
     1    29    30    1
     2     1    30    1
     3     1     2    1
     4     2     3    1
     5     3     4    2
     6     3     5    1
     7     5     6    1
     8     5     7    1
     9     7    33    1
    10    34    33    1
    11    34    35    1
    12    35    36    1
    13    36    37    1
    14    36    44    1
    15    44    45    1
    16    36    38    1
    17    38    39    1
    18    38    40    1
    19    40    41    1
    20    40    42    1
    21     7     8    1
    22     8     9    1
    23     8    10    1
    24    10    46    1
    25    47    46    1
    26    47    48    1
    27    48    49    1
    28    49    50    1
    29    49    51    1
    30    52    51    1
    31    52    53    1
    32    53    54    1
    33    54    55    1
    34    55    56    2
    35    56    59    1
    36    59    60   ar
    37    60    61   ar
    38    61    62   ar
    39    62    65    1
    40    65    66    1
    41    62    63   ar
    42    63    64   ar
    43    55    57    1
    44    57    58    1
    45    10    11    1
    46    11    12    1
    47    11    31    1
    48    31    32    1
    49    11    13    1
    50    13    14    1
    51    14    15    1
    52    14    16    1
    53    16    17    2
    54    16    18   am
    55    18    19    1
    56    19    20    1
    57    19    21    1
    58    21    22    1
    59    21    23    1
    60    23    24    1
    61    23    25    1
    62    23     1    1
    63    42    34    1
    64    53    47    1
    65    64    59   ar
    66    57    52    1
    67    39    43    1
    68    18    26    1
    69    22    27    1
    70    25    28    1
@<TRIPOS>MOLECULE
*****
 66 70 0 0 0
SMALL
GASTEIGER

@<TRIPOS>ATOM
      1 C          63.1120   87.3699   16.6561 C.3     1  UNL1        0.1953
      2 O          63.1321   88.7337   16.0320 O.3     1  UNL1       -0.4497
      3 C          63.0868   89.7279   14.9098 C.2     1  UNL1        0.3188
      4 O          63.2253   91.0303   15.6411 O.2     1  UNL1       -0.2500
      5 C          62.9839   90.1806   13.4834 C.3     1  UNL1        0.1263
      6 C          63.0948   91.4505   13.9281 C.3     1  UNL1        0.0142
      7 C          62.8413   90.0135   11.9996 C.3     1  UNL1        0.1306
      8 C          62.6835   89.2555   10.7148 C.3     1  UNL1        0.0575
      9 C          62.6543   90.3615    9.7018 C.3     1  UNL1        0.0051
     10 C          62.5379   88.0377    9.8513 C.3     1  UNL1        0.1448
     11 C          62.4296   86.5706    9.5584 C.3     1  UNL1        0.1183
     12 C          62.2720   85.7243    8.3300 C.3     1  UNL1        0.0321
     13 C          62.3774   85.1078    9.8866 C.3     1  UNL1        0.0387
     14 C          62.3903   83.9025   10.7793 C.3     1  UNL1        0.0789
     15 C          62.2392   82.7824    9.7931 C.3     1  UNL1        0.0096
     16 C          62.4661   83.1628   12.0820 C.2     1  UNL1        0.2221
     17 O          62.3464   81.7351   11.6376 O.2     1  UNL1       -0.2751
     18 N          62.5916   83.0169   13.5696 N.am    1  UNL1       -0.3035
     19 C          62.7452   83.4898   14.9849 C.3     1  UNL1        0.1008
     20 C          62.7415   82.1980   15.7474 C.3     1  UNL1        0.0239
     21 C          62.9002   84.4998   16.0830 C.3     1  UNL1        0.1560
     22 O          62.9611   83.6280   17.3022 O.3     1  UNL1       -0.3803
     23 C          63.0300   85.8722   16.6741 C.3     1  UNL1        0.1509
     24 C          63.1857   86.4431   18.0524 C.3     1  UNL1        0.0356
     25 O          63.0646   84.8023   17.7248 O.3     1  UNL1       -0.3808
     26 H          62.5473   82.0400   13.6839 H       1  UNL1        0.1495
     27 H          62.8854   82.6976   17.0385 H       1  UNL1        0.2105
     28 H          62.9782   83.9327   17.3038 H       1  UNL1        0.2105
     29 C          62.4640   86.9343   19.1341 C.3     1  UNL1        0.0039
     30 C          63.2610   87.6916   18.1136 C.3     1  UNL1        0.0462
     31 O          62.3637   87.3992    8.3098 O.3     1  UNL1       -0.3535
     32 C          62.2066   86.8905    7.7166 C.3     1  UNL1        0.1740
     33 O          62.8776   91.4346   11.5208 O.3     1  UNL1       -0.3323
     34 C          64.1945   92.1117   11.2806 C.3     1  UNL1        0.2375
     35 C          65.4065   91.6917   12.0582 C.3     1  UNL1        0.0910
     36 C          66.7233   92.3687   11.8182 C.3     1  UNL1        0.1246
     37 C          68.1793   92.7054   11.9471 C.3     1  UNL1        0.0324
     38 C          66.8281   93.4657   10.8006 C.3     1  UNL1        0.1623
     39 O          68.1449   94.1428   10.5605 O.3     1  UNL1       -0.3796
     40 C          65.6161   93.8857   10.0230 C.3     1  UNL1        0.1468
     41 C          65.7209   94.9827    9.0053 C.3     1  UNL1        0.0348
     42 O          64.2993   93.2087   10.2630 O.3     1  UNL1       -0.3304
     43 H          68.0389   94.8227    9.8768 H       1  UNL1        0.2105
     44 O          67.1242   91.3887   12.8806 O.3     1  UNL1       -0.3532
     45 C          66.6988   91.6080   14.3022 C.3     1  UNL1        0.1740
     46 O          62.4481   88.6372    8.4793 O.3     1  UNL1       -0.3278
     47 C          61.1132   88.7854    7.8115 C.3     1  UNL1        0.2785
     48 O          59.9345   88.0026    8.3094 O.3     1  UNL1       -0.3302
     49 C          58.5995   88.1509    7.6417 C.3     1  UNL1        0.1198
     50 C          57.4208   87.3680    8.1395 C.3     1  UNL1        0.0322
     51 C          58.4433   89.0820    6.4761 C.3     1  UNL1        0.0534
     52 C          59.6219   89.8649    5.9782 C.3     1  UNL1        0.1245
     53 C          60.9569   89.7166    6.6460 C.3     1  UNL1        0.2426
     54 O          61.9309   90.6119    5.9389 O.2     1  UNL1       -0.4464
     55 C          61.1977   91.3135    4.8342 C.2     1  UNL1        0.2878
     56 N          61.7880   92.3030    3.8738 N.2     1  UNL1       -0.1980
     57 N          59.7708   90.8518    4.8584 N.pl3   1  UNL1       -0.2600
     58 C          58.6836   91.2986    3.9267 C.3     1  UNL1        0.1167
     59 C          60.9271   92.9262    2.8154 C.ar    1  UNL1        0.0859
     60 C          60.5393   92.1345    1.6019 C.ar    1  UNL1        0.0224
     61 C          59.6783   92.7577    0.5434 C.ar    1  UNL1        0.0384
     62 C          59.2052   94.1726    0.6984 C.ar    1  UNL1        0.1388
     63 C          59.5930   94.9644    1.9120 C.ar    1  UNL1        0.0384
     64 C          60.4540   94.3411    2.9704 C.ar    1  UNL1        0.0224
     65 O          58.3442   94.7959   -0.3601 O.3     1  UNL1       -0.4714
     66 C          57.3122   93.9703   -1.0695 C.3     1  UNL1        0.2525
@<TRIPOS>BOND
     1    29    30    1
     2     1    30    1
     3     1     2    1
     4     2     3    1
     5     3     4    2
     6     3     5    1
     7     5     6    1
     8     5     7    1
     9     7    33    1
    10    34    33    1
    11    34    35    1
    12    35    36    1
    13    36    37    1
    14    36    44    1
    15    44    45    1
    16    36    38    1
    17    38    39    1
    18    38    40    1
    19    40    41    1
    20    40    42    1
    21     7     8    1
    22     8     9    1
    23     8    10    1
    24    10    46    1
    25    47    46    1
    26    47    48    1
    27    48    49    1
    28    49    50    1
    29    49    51    1
    30    52    51    1
    31    52    53    1
    32    53    54    1
    33    54    55    1
    34    55    56    2
    35    56    59    1
    36    59    60   ar
    37    60    61   ar
    38    61    62   ar
    39    62    65    1
    40    65    66    1
    41    62    63   ar
    42    63    64   ar
    43    55    57    1
    44    57    58    1
    45    10    11    1
    46    11    12    1
    47    11    31    1
    48    31    32    1
    49    11    13    1
    50    13    14    1
    51    14    15    1
    52    14    16    1
    53    16    17    2
    54    16    18   am
    55    18    19    1
    56    19    20    1
    57    19    21    1
    58    21    22    1
    59    21    23    1
    60    23    24    1
    61    23    25    1
    62    23     1    1
    63    42    34    1
    64    53    47    1
    65    64    59   ar
    66    57    52    1
    67    39    43    1
    68    18    26    1
    69    22    27    1
    70    25    28    1
@<TRIPOS>MOLECULE
*****
 66 70 0 0 0
SMALL
GASTEIGER

@<TRIPOS>ATOM
      1 C          65.9947   95.5589    7.4808 C.3     1  UNL1        0.1953
      2 O          65.7725   94.8824    8.8010 O.3     1  UNL1       -0.4497
      3 C          65.1444   93.9081    9.7529 C.2     1  UNL1        0.3188
      4 O          65.8594   94.2191   11.0345 O.2     1  UNL1       -0.2500
      5 C          64.2189   92.8045   10.1720 C.3     1  UNL1        0.1263
      6 C          64.7286   92.9142   11.4174 C.3     1  UNL1        0.0142
      7 C          63.1562   91.7624    9.9858 C.3     1  UNL1        0.1306
      8 C          62.1399   90.9620    9.2265 C.3     1  UNL1        0.0575
      9 C          61.6056   90.0479   10.2890 C.3     1  UNL1        0.0051
     10 C          61.3459   90.5417    8.0253 C.3     1  UNL1        0.1448
     11 C          60.9113   90.5742    6.5900 C.3     1  UNL1        0.1183
     12 C          59.9206   89.8291    5.7455 C.3     1  UNL1        0.0321
     13 C          60.9114   91.0538    5.1688 C.3     1  UNL1        0.0387
     14 C          61.3460   91.8976    4.0073 C.3     1  UNL1        0.0789
     15 C          60.4816   91.3726    2.8996 C.3     1  UNL1        0.0096
     16 C          62.1401   92.9598    3.3065 C.2     1  UNL1        0.2221
     17 O          61.6059   92.8765    1.9073 O.2     1  UNL1       -0.2751
     18 N          63.1564   94.0566    3.1875 N.am    1  UNL1       -0.3035
     19 C          64.2191   94.9984    3.6708 C.3     1  UNL1        0.1008
     20 C          64.5493   95.7628    2.4231 C.3     1  UNL1        0.0239
     21 C          65.1445   95.6225    4.6730 C.3     1  UNL1        0.1560
     22 O          65.8596   96.6463    3.8420 O.3     1  UNL1       -0.3803
     23 C          65.7725   95.8207    6.0206 C.3     1  UNL1        0.1509
     24 C          66.8249   96.7196    6.5990 C.3     1  UNL1        0.0356
     25 O          66.3388   96.7560    4.9937 O.3     1  UNL1       -0.3808
     26 H          63.0831   94.3013    2.2367 H       1  UNL1        0.1495
     27 H          65.5296   96.6108    2.9305 H       1  UNL1        0.2105
     28 H          65.9084   96.5969    4.1391 H       1  UNL1        0.2105
     29 C          67.3846   96.8560    9.2516 C.3     1  UNL1        0.0039
     30 C          67.0633   96.5563    7.8174 C.3     1  UNL1        0.0462
     31 O          60.1690   89.5363    7.3785 O.3     1  UNL1       -0.3535
     32 C          59.4483   89.4791    7.0427 C.3     1  UNL1        0.1740
     33 O          63.0445   91.1811   11.3641 O.3     1  UNL1       -0.3323
     34 C          64.1632   91.3614   12.3471 C.3     1  UNL1        0.2375
     35 C          63.8607   91.5078   13.8090 C.3     1  UNL1        0.0910
     36 C          64.9793   91.6881   14.7919 C.3     1  UNL1        0.1246
     37 C          65.6901   91.8797   16.0988 C.3     1  UNL1        0.0324
     38 C          66.4003   91.7220   14.3130 C.3     1  UNL1        0.1623
     39 O          67.5189   91.9023   15.2959 O.3     1  UNL1       -0.3796
     40 C          66.7028   91.5757   12.8511 C.3     1  UNL1        0.1468
     41 C          68.1239   91.6096   12.3722 C.3     1  UNL1        0.0348
     42 O          65.5842   91.3954   11.8681 O.3     1  UNL1       -0.3304
     43 H          68.3667   91.9016   14.8246 H       1  UNL1        0.2105
     44 O          63.8050   91.7207   15.7247 O.3     1  UNL1       -0.3532
     45 C          63.4911   90.5271   16.5772 C.3     1  UNL1        0.1740
     46 O          60.4814   89.4528    8.5884 O.3     1  UNL1       -0.3278
     47 C          60.9135   88.0206    8.4800 C.3     1  UNL1        0.2785
     48 O          60.7860   87.2956    7.1730 O.3     1  UNL1       -0.3302
     49 C          61.2182   85.8633    7.0646 C.3     1  UNL1        0.1198
     50 C          61.0907   85.1383    5.7576 C.3     1  UNL1        0.0322
     51 C          61.7778   85.1560    8.2631 C.3     1  UNL1        0.0534
     52 C          61.9053   85.8809    9.5701 C.3     1  UNL1        0.1245
     53 C          61.4731   87.3133    9.6785 C.3     1  UNL1        0.2426
     54 O          61.7169   87.7656   11.0878 O.2     1  UNL1       -0.4464
     55 C          62.2997   86.6127   11.8503 C.2     1  UNL1        0.2878
     56 N          62.6964   86.6229   13.2969 N.2     1  UNL1       -0.1980
     57 N          62.4161   85.4479   10.9124 N.pl3   1  UNL1       -0.2600
     58 C          62.9496   84.0890   11.2563 C.3     1  UNL1        0.1167
     59 C          63.2689   85.3876   13.9262 C.ar    1  UNL1        0.0859
     60 C          62.3567   84.3641   14.5347 C.ar    1  UNL1        0.0224
     61 C          62.9293   83.1288   15.1641 C.ar    1  UNL1        0.0384
     62 C          64.4141   82.9170   15.1851 C.ar    1  UNL1        0.1388
     63 C          65.3263   83.9405   14.5766 C.ar    1  UNL1        0.0384
     64 C          64.7537   85.1758   13.9472 C.ar    1  UNL1        0.0224
     65 O          64.9867   81.6817   15.8145 O.3     1  UNL1       -0.4714
     66 C          64.9291   80.3724   15.0847 C.3     1  UNL1        0.2525
@<TRIPOS>BOND
     1    29    30    1
     2     1    30    1
     3     1     2    1
     4     2     3    1
     5     3     4    2
     6     3     5    1
     7     5     6    1
     8     5     7    1
     9     7    33    1
    10    34    33    1
    11    34    35    1
    12    35    36    1
    13    36    37    1
    14    36    44    1
    15    44    45    1
    16    36    38    1
    17    38    39    1
    18    38    40    1
    19    40    41    1
    20    40    42    1
    21     7     8    1
    22     8     9    1
    23     8    10    1
    24    10    46    1
    25    47    46    1
    26    47    48    1
    27    48    49    1
    28    49    50    1
    29    49    51    1
    30    52    51    1
    31    52    53    1
    32    53    54    1
    33    54    55    1
    34    55    56    2
    35    56    59    1
    36    59    60   ar
    37    60    61   ar
    38    61    62   ar
    39    62    65    1
    40    65    66    1
    41    62    63   ar
    42    63    64   ar
    43    55    57    1
    44    57    58    1
    45    10    11    1
    46    11    12    1
    47    11    31    1
    48    31    32    1
    49    11    13    1
    50    13    14    1
    51    14    15    1
    52    14    16    1
    53    16    17    2
    54    16    18   am
    55    18    19    1
    56    19    20    1
    57    19    21    1
    58    21    22    1
    59    21    23    1
    60    23    24    1
    61    23    25    1
    62    23     1    1
    63    42    34    1
    64    53    47    1
    65    64    59   ar
    66    57    52    1
    67    39    43    1
    68    18    26    1
    69    22    27    1
    70    25    28    1
@<TRIPOS>MOLECULE
*****
 66 70 0 0 0
SMALL
GASTEIGER

@<TRIPOS>ATOM
      1 C          65.9993   95.7925    6.8790 C.3     1  UNL1        0.1953
      2 O          65.9813   95.3036    8.2970 O.3     1  UNL1       -0.4497
      3 C          65.5246   94.4596    9.4498 C.2     1  UNL1        0.3188
      4 O          66.3900   94.9628   10.5670 O.2     1  UNL1       -0.2500
      5 C          64.7079   93.4063   10.1381 C.3     1  UNL1        0.1263
      6 C          65.3733   93.7008   11.2753 C.3     1  UNL1        0.0142
      7 C          63.6726   92.3259   10.2428 C.3     1  UNL1        0.1306
      8 C          62.5977   91.4052    9.7459 C.3     1  UNL1        0.0575
      9 C          62.2460   90.6383   10.9862 C.3     1  UNL1        0.0051
     10 C          61.6690   90.8034    8.7333 C.3     1  UNL1        0.1448
     11 C          61.0472   90.6246    7.3801 C.3     1  UNL1        0.1183
     12 C          59.9841   89.7472    6.7886 C.3     1  UNL1        0.0321
     13 C          60.8396   90.8996    5.9202 C.3     1  UNL1        0.0387
     14 C          61.0823   91.5809    4.6061 C.3     1  UNL1        0.0789
     15 C          60.1005   90.8871    3.7090 C.3     1  UNL1        0.0096
     16 C          61.7333   92.5508    3.6650 C.2     1  UNL1        0.2221
     17 O          61.0221   92.2602    2.3765 O.2     1  UNL1       -0.2751
     18 N          62.6799   93.6414    3.2596 N.am    1  UNL1       -0.3035
     19 C          63.7586   94.6643    3.4601 C.3     1  UNL1        0.1008
     20 C          63.8896   95.2526    2.0865 C.3     1  UNL1        0.0239
     21 C          64.7828   95.4426    4.2317 C.3     1  UNL1        0.1560
     22 O          65.3397   96.3546    3.1789 O.3     1  UNL1       -0.3803
     23 C          65.5753   95.8416    5.4411 C.3     1  UNL1        0.1509
     24 C          66.6580   96.8352    5.7420 C.3     1  UNL1        0.0356
     25 O          65.9625   96.6352    4.2285 O.3     1  UNL1       -0.3808
     26 H          62.4715   93.7484    2.3034 H       1  UNL1        0.1495
     27 H          64.8935   96.1842    2.3347 H       1  UNL1        0.2105
     28 H          65.4294   96.3484    3.4706 H       1  UNL1        0.2105
     29 C          68.0642   96.8558    8.0433 C.3     1  UNL1        0.0039
     30 C          67.0621   96.8499    6.9272 C.3     1  UNL1        0.0462
     31 O          60.4582   89.6922    8.3968 O.3     1  UNL1       -0.3535
     32 C          59.6853   89.8809    8.4462 C.3     1  UNL1        0.1740
     33 O          63.7679   91.9418   11.6897 O.3     1  UNL1       -0.3323
     34 C          65.0934   91.9828   12.3908 C.3     1  UNL1        0.2375
     35 C          66.3517   91.6749   11.6345 C.3     1  UNL1        0.0910
     36 C          67.6772   91.7158   12.3355 C.3     1  UNL1        0.1246
     37 C          69.1579   91.6246   12.5572 C.3     1  UNL1        0.0324
     38 C          67.7444   92.0646   13.7928 C.3     1  UNL1        0.1623
     39 O          69.0697   92.1056   14.4939 O.3     1  UNL1       -0.3796
     40 C          66.4861   92.3725   14.5491 C.3     1  UNL1        0.1468
     41 C          66.5533   92.7213   16.0064 C.3     1  UNL1        0.0348
     42 O          65.1606   92.3316   13.8481 O.3     1  UNL1       -0.3304
     43 H          68.9362   92.3456   15.4242 H       1  UNL1        0.2105
     44 O          68.1242   91.3353   10.9552 O.3     1  UNL1       -0.3532
     45 C          68.5113   92.4001    9.9721 C.3     1  UNL1        0.1740
     46 O          60.9312   89.7863    9.5525 O.3     1  UNL1       -0.3278
     47 C          60.9350   88.3445    9.1389 C.3     1  UNL1        0.2785
     48 O          60.4615   87.9557    7.7697 O.3     1  UNL1       -0.3302
     49 C          60.4653   86.5138    7.3562 C.3     1  UNL1        0.1198
     50 C          59.9919   86.1251    5.9870 C.3     1  UNL1        0.0322
     51 C          60.9426   85.4608    8.3118 C.3     1  UNL1        0.0534
     52 C          61.4161   85.8495    9.6810 C.3     1  UNL1        0.1245
     53 C          61.4123   87.2914   10.0946 C.3     1  UNL1        0.2426
     54 O          61.9332   87.3722   11.4989 O.2     1  UNL1       -0.4464
     55 C          62.2589   85.9802   11.9532 C.2     1  UNL1        0.2878
     56 N          62.8078   85.5966   13.2954 N.2     1  UNL1       -0.1980
     57 N          61.9393   85.0391   10.8297 N.pl3   1  UNL1       -0.2600
     58 C          62.1126   83.5494   10.8512 C.3     1  UNL1        0.1167
     59 C          63.0856   84.1563   13.6084 C.ar    1  UNL1        0.0859
     60 C          64.4435   83.5786   13.3395 C.ar    1  UNL1        0.0224
     61 C          64.7212   82.1382   13.6524 C.ar    1  UNL1        0.0384
     62 C          63.6411   81.2753   14.2344 C.ar    1  UNL1        0.1388
     63 C          62.2831   81.8529   14.5033 C.ar    1  UNL1        0.0384
     64 C          62.0054   83.2934   14.1903 C.ar    1  UNL1        0.0224
     65 O          63.9188   79.8348   14.5473 O.3     1  UNL1       -0.4714
     66 C          62.8996   78.7853   14.2161 C.3     1  UNL1        0.2525
@<TRIPOS>BOND
     1    29    30    1
     2     1    30    1
     3     1     2    1
     4     2     3    1
     5     3     4    2
     6     3     5    1
     7     5     6    1
     8     5     7    1
     9     7    33    1
    10    34    33    1
    11    34    35    1
    12    35    36    1
    13    36    37    1
    14    36    44    1
    15    44    45    1
    16    36    38    1
    17    38    39    1
    18    38    40    1
    19    40    41    1
    20    40    42    1
    21     7     8    1
    22     8     9    1
    23     8    10    1
    24    10    46    1
    25    47    46    1
    26    47    48    1
    27    48    49    1
    28    49    50    1
    29    49    51    1
    30    52    51    1
    31    52    53    1
    32    53    54    1
    33    54    55    1
    34    55    56    2
    35    56    59    1
    36    59    60   ar
    37    60    61   ar
    38    61    62   ar
    39    62    65    1
    40    65    66    1
    41    62    63   ar
    42    63    64   ar
    43    55    57    1
    44    57    58    1
    45    10    11    1
    46    11    12    1
    47    11    31    1
    48    31    32    1
    49    11    13    1
    50    13    14    1
    51    14    15    1
    52    14    16    1
    53    16    17    2
    54    16    18   am
    55    18    19    1
    56    19    20    1
    57    19    21    1
    58    21    22    1
    59    21    23    1
    60    23    24    1
    61    23    25    1
    62    23     1    1
    63    42    34    1
    64    53    47    1
    65    64    59   ar
    66    57    52    1
    67    39    43    1
    68    18    26    1
    69    22    27    1
    70    25    28    1
