@<TRIPOS>MOLECULE
*****
 25 28 0 0 0
SMALL
GASTEIGER

@<TRIPOS>ATOM
      1 C          62.7677   84.8357   11.3625 C.ar    1  UNL1       -0.0129
      2 C          63.4042   85.3642   12.6136 C.ar    1  UNL1        0.0368
      3 C          63.7041   84.4354   13.7527 C.ar    1  UNL1        0.1792
      4 C          63.3675   82.9780   13.6404 C.ar    1  UNL1        0.1796
      5 O          63.5440   81.8310   14.5908 O.2     1  UNL1       -0.4473
      6 C          63.0166   80.5936   13.9270 C.ar    1  UNL1        0.1798
      7 C          62.5141   80.9758   12.5663 C.ar    1  UNL1        0.0438
      8 C          62.7309   82.4494   12.3892 C.ar    1  UNL1        0.0405
      9 C          62.4311   83.3783   11.2502 C.ar    1  UNL1       -0.0005
     10 C          62.4678   85.7646   10.2235 C.3     1  UNL1        0.0735
     11 O          59.5456   90.9063   11.2356 O.2     1  UNL1       -0.2711
     12 C          60.2761   89.6209   10.9826 C.2     1  UNL1        0.2671
     13 C          61.3435   89.5595    9.9304 C.3     1  UNL1        0.1159
     14 C          62.0741   88.2741    9.6774 C.2     1  UNL1        0.0002
     15 C          61.7373   87.0500   10.4765 C.2     1  UNL1        0.0789
     16 N          60.6699   87.1115   11.5285 N.2     1  UNL1       -0.1605
     17 N          59.9393   88.3970   11.7816 N.am    1  UNL1       -0.0793
     18 O          64.3407   84.9640   15.0039 O.3     1  UNL1       -0.4504
     19 C          63.9785   86.3284   15.5108 C.ar    1  UNL1        0.1463
     20 C          63.2012   86.4729   16.7855 C.ar    1  UNL1        0.0375
     21 C          62.8390   87.8374   17.2925 C.ar    1  UNL1        0.0040
     22 C          63.2542   89.0573   16.5248 C.ar    1  UNL1        0.0116
     23 C          64.0315   88.9128   15.2501 C.ar    1  UNL1        0.0607
     24 CL         64.4466   90.1327   14.4823 Cl      1  UNL1       -0.0821
     25 C          64.3937   87.5484   14.7431 C.ar    1  UNL1        0.0489
@<TRIPOS>BOND
     1    11    12    2
     2    12    13    1
     3    13    14    1
     4    14    15    2
     5    15    10    1
     6    10     1    1
     7     1     2   ar
     8     2     3   ar
     9     3    18    1
    10    18    19    1
    11    19    20   ar
    12    20    21   ar
    13    21    22   ar
    14    22    23   ar
    15    23    24    1
    16    23    25   ar
    17     3     4   ar
    18     4     5   ar
    19     5     6   ar
    20     6     7   ar
    21     7     8   ar
    22     8     9   ar
    23    15    16    1
    24    16    17    2
    25    17    12    1
    26     9     1   ar
    27    25    19   ar
    28     8     4   ar
@<TRIPOS>MOLECULE
*****
 25 28 0 0 0
SMALL
GASTEIGER

@<TRIPOS>ATOM
      1 C          65.5173   92.0072   12.6584 C.ar    1  UNL1       -0.0129
      2 C          65.1112   91.5073   14.0129 C.ar    1  UNL1        0.0368
      3 C          63.8459   90.7174   14.1726 C.ar    1  UNL1        0.1792
      4 C          62.9869   90.4276   12.9775 C.ar    1  UNL1        0.1796
      5 O          61.6950   89.6803   12.8276 O.2     1  UNL1       -0.4473
      6 C          61.3028   89.7185   11.3803 C.ar    1  UNL1        0.1798
      7 C          62.3523   90.4894   10.6357 C.ar    1  UNL1        0.0438
      8 C          63.3932   90.9277   11.6229 C.ar    1  UNL1        0.0405
      9 C          64.6584   91.7175   11.4633 C.ar    1  UNL1       -0.0005
     10 C          66.7826   92.7971   12.4988 C.3     1  UNL1        0.0735
     11 O          67.2946   96.7713    8.0330 O.2     1  UNL1       -0.2711
     12 C          67.1666   95.7778    9.1494 C.2     1  UNL1        0.2671
     13 C          66.2835   96.0791   10.3239 C.3     1  UNL1        0.1159
     14 C          66.1555   95.0855   11.4403 C.2     1  UNL1        0.0002
     15 C          66.9106   93.7906   11.3823 C.2     1  UNL1        0.0789
     16 N          67.7937   93.4894   10.2079 N.2     1  UNL1       -0.1605
     17 N          67.9217   94.4830    9.0914 N.am    1  UNL1       -0.0793
     18 O          63.4398   90.2174   15.5273 O.3     1  UNL1       -0.4504
     19 C          63.5039   88.7509   15.8357 C.ar    1  UNL1        0.1463
     20 C          62.8626   88.2181   17.0826 C.ar    1  UNL1        0.0375
     21 C          62.9267   86.7515   17.3911 C.ar    1  UNL1        0.0040
     22 C          63.6320   85.8179   16.4527 C.ar    1  UNL1        0.0116
     23 C          64.2733   86.3507   15.2057 C.ar    1  UNL1        0.0607
     24 CL         64.9787   85.4170   14.2673 Cl      1  UNL1       -0.0821
     25 C          64.2093   87.8172   14.8972 C.ar    1  UNL1        0.0489
@<TRIPOS>BOND
     1    11    12    2
     2    12    13    1
     3    13    14    1
     4    14    15    2
     5    15    10    1
     6    10     1    1
     7     1     2   ar
     8     2     3   ar
     9     3    18    1
    10    18    19    1
    11    19    20   ar
    12    20    21   ar
    13    21    22   ar
    14    22    23   ar
    15    23    24    1
    16    23    25   ar
    17     3     4   ar
    18     4     5   ar
    19     5     6   ar
    20     6     7   ar
    21     7     8   ar
    22     8     9   ar
    23    15    16    1
    24    16    17    2
    25    17    12    1
    26     9     1   ar
    27    25    19   ar
    28     8     4   ar
@<TRIPOS>MOLECULE
*****
 25 28 0 0 0
SMALL
GASTEIGER

@<TRIPOS>ATOM
      1 C          62.1421   90.4099   11.3258 C.ar    1  UNL1       -0.0129
      2 C          62.4417   90.1480   12.7720 C.ar    1  UNL1        0.0368
      3 C          63.6978   90.6894   13.3878 C.ar    1  UNL1        0.1792
      4 C          64.6543   91.4927   12.5573 C.ar    1  UNL1        0.1796
      5 O          65.9618   92.1501   12.8863 O.2     1  UNL1       -0.4473
      6 C          66.4703   92.8183   11.6433 C.ar    1  UNL1        0.1798
      7 C          65.4771   92.5738   10.5461 C.ar    1  UNL1        0.0438
      8 C          64.3547   91.7546   11.1110 C.ar    1  UNL1        0.0405
      9 C          63.0986   91.2131   10.4953 C.ar    1  UNL1       -0.0005
     10 C          60.8860   89.8684   10.7100 C.3     1  UNL1        0.0735
     11 O          61.1387   85.0937    7.0853 O.2     1  UNL1       -0.2711
     12 C          61.0755   86.2874    7.9914 C.2     1  UNL1        0.2671
     13 C          62.1123   86.4740    9.0593 C.3     1  UNL1        0.1159
     14 C          62.0492   87.6677    9.9654 C.2     1  UNL1        0.0002
     15 C          60.9492   88.6748    9.8038 C.2     1  UNL1        0.0789
     16 N          59.9125   88.4881    8.7360 N.2     1  UNL1       -0.1605
     17 N          59.9757   87.2943    7.8298 N.am    1  UNL1       -0.0793
     18 O          63.9973   90.4275   14.8341 O.3     1  UNL1       -0.4504
     19 C          63.8204   89.0493   15.3990 C.ar    1  UNL1        0.1463
     20 C          63.0736   88.8562   16.6855 C.ar    1  UNL1        0.0375
     21 C          62.8967   87.4780   17.2505 C.ar    1  UNL1        0.0040
     22 C          63.4666   86.2928   16.5289 C.ar    1  UNL1        0.0116
     23 C          64.2134   86.4859   15.2425 C.ar    1  UNL1        0.0607
     24 CL         64.7832   85.3007   14.5209 Cl      1  UNL1       -0.0821
     25 C          64.3903   87.8641   14.6775 C.ar    1  UNL1        0.0489
@<TRIPOS>BOND
     1    11    12    2
     2    12    13    1
     3    13    14    1
     4    14    15    2
     5    15    10    1
     6    10     1    1
     7     1     2   ar
     8     2     3   ar
     9     3    18    1
    10    18    19    1
    11    19    20   ar
    12    20    21   ar
    13    21    22   ar
    14    22    23   ar
    15    23    24    1
    16    23    25   ar
    17     3     4   ar
    18     4     5   ar
    19     5     6   ar
    20     6     7   ar
    21     7     8   ar
    22     8     9   ar
    23    15    16    1
    24    16    17    2
    25    17    12    1
    26     9     1   ar
    27    25    19   ar
    28     8     4   ar
@<TRIPOS>MOLECULE
*****
 25 28 0 0 0
SMALL
GASTEIGER

@<TRIPOS>ATOM
      1 C          64.0255   87.5180   14.0429 C.ar    1  UNL1       -0.0129
      2 C          64.3199   88.8740   14.6126 C.ar    1  UNL1        0.0368
      3 C          63.9175   90.1074   13.8596 C.ar    1  UNL1        0.1792
      4 C          63.2208   89.9847   12.5369 C.ar    1  UNL1        0.1796
      5 O          62.7083   91.0135   11.5732 O.2     1  UNL1       -0.4473
      6 C          62.0971   90.2934   10.4079 C.ar    1  UNL1        0.1798
      7 C          62.2319   88.8194   10.6515 C.ar    1  UNL1        0.0438
      8 C          62.9264   88.6286   11.9672 C.ar    1  UNL1        0.0405
      9 C          63.3288   87.3953   12.7203 C.ar    1  UNL1       -0.0005
     10 C          64.4278   86.2846   14.7960 C.3     1  UNL1        0.0735
     11 O          62.0838   80.9649   13.3106 O.2     1  UNL1       -0.2711
     12 C          62.6698   82.2948   13.6819 C.2     1  UNL1        0.2671
     13 C          63.9679   82.7383   13.0749 C.3     1  UNL1        0.1159
     14 C          64.5539   84.0682   13.4462 C.2     1  UNL1        0.0002
     15 C          63.8419   84.9547   14.4246 C.2     1  UNL1        0.0789
     16 N          62.5439   84.5113   15.0316 N.2     1  UNL1       -0.1605
     17 N          61.9578   83.1813   14.6603 N.am    1  UNL1       -0.0793
     18 O          64.2119   91.4634   14.4293 O.3     1  UNL1       -0.4504
     19 C          65.6314   91.8827   14.6725 C.ar    1  UNL1        0.1463
     20 C          65.9987   92.5826   15.9474 C.ar    1  UNL1        0.0375
     21 C          67.4182   93.0019   16.1906 C.ar    1  UNL1        0.0040
     22 C          68.4704   92.7213   15.1591 C.ar    1  UNL1        0.0116
     23 C          68.1031   92.0214   13.8842 C.ar    1  UNL1        0.0607
     24 CL         69.1553   91.7408   12.8527 Cl      1  UNL1       -0.0821
     25 C          66.6836   91.6021   13.6409 C.ar    1  UNL1        0.0489
@<TRIPOS>BOND
     1    11    12    2
     2    12    13    1
     3    13    14    1
     4    14    15    2
     5    15    10    1
     6    10     1    1
     7     1     2   ar
     8     2     3   ar
     9     3    18    1
    10    18    19    1
    11    19    20   ar
    12    20    21   ar
    13    21    22   ar
    14    22    23   ar
    15    23    24    1
    16    23    25   ar
    17     3     4   ar
    18     4     5   ar
    19     5     6   ar
    20     6     7   ar
    21     7     8   ar
    22     8     9   ar
    23    15    16    1
    24    16    17    2
    25    17    12    1
    26     9     1   ar
    27    25    19   ar
    28     8     4   ar
@<TRIPOS>MOLECULE
*****
 25 28 0 0 0
SMALL
GASTEIGER

@<TRIPOS>ATOM
      1 C          62.7291   85.1938    9.7670 C.ar    1  UNL1       -0.0129
      2 C          62.6205   86.2515   10.8248 C.ar    1  UNL1        0.0368
      3 C          61.6075   87.3492   10.6868 C.ar    1  UNL1        0.1792
      4 C          60.7030   87.3889    9.4908 C.ar    1  UNL1        0.1796
      5 O          59.6166   88.3403    9.0852 O.2     1  UNL1       -0.4473
      6 C          59.0538   87.8704    7.7766 C.ar    1  UNL1        0.1798
      7 C          59.7923   86.6287    7.3735 C.ar    1  UNL1        0.0438
      8 C          60.8117   86.3310    8.4329 C.ar    1  UNL1        0.0405
      9 C          61.8247   85.2335    8.5710 C.ar    1  UNL1       -0.0005
     10 C          63.7422   84.0961    9.9050 C.3     1  UNL1        0.0735
     11 O          63.3398   80.1964   14.4471 O.2     1  UNL1       -0.2711
     12 C          63.4404   81.1714   13.3116 C.2     1  UNL1        0.2671
     13 C          62.9090   80.8034   11.9579 C.3     1  UNL1        0.1159
     14 C          63.0097   81.7784   10.8224 C.2     1  UNL1        0.0002
     15 C          63.6416   83.1212   11.0405 C.2     1  UNL1        0.0789
     16 N          64.1729   83.4891   12.3941 N.2     1  UNL1       -0.1605
     17 N          64.0723   82.5141   13.5297 N.am    1  UNL1       -0.0793
     18 O          61.4989   88.4070   11.7448 O.3     1  UNL1       -0.4504
     19 C          62.5094   89.5139   11.8050 C.ar    1  UNL1        0.1463
     20 C          62.7361   90.3884   10.6075 C.ar    1  UNL1        0.0375
     21 C          63.7465   91.4954   10.6677 C.ar    1  UNL1        0.0040
     22 C          64.5302   91.7279   11.9254 C.ar    1  UNL1        0.0116
     23 C          64.3035   90.8534   13.1228 C.ar    1  UNL1        0.0607
     24 CL         65.0873   91.0859   14.3805 Cl      1  UNL1       -0.0821
     25 C          63.2931   89.7464   13.0627 C.ar    1  UNL1        0.0489
@<TRIPOS>BOND
     1    11    12    2
     2    12    13    1
     3    13    14    1
     4    14    15    2
     5    15    10    1
     6    10     1    1
     7     1     2   ar
     8     2     3   ar
     9     3    18    1
    10    18    19    1
    11    19    20   ar
    12    20    21   ar
    13    21    22   ar
    14    22    23   ar
    15    23    24    1
    16    23    25   ar
    17     3     4   ar
    18     4     5   ar
    19     5     6   ar
    20     6     7   ar
    21     7     8   ar
    22     8     9   ar
    23    15    16    1
    24    16    17    2
    25    17    12    1
    26     9     1   ar
    27    25    19   ar
    28     8     4   ar
@<TRIPOS>MOLECULE
*****
 25 28 0 0 0
SMALL
GASTEIGER

@<TRIPOS>ATOM
      1 C          63.9384   90.0383   14.7016 C.ar    1  UNL1       -0.0129
      2 C          63.0109   89.9879   13.5239 C.ar    1  UNL1        0.0368
      3 C          63.3163   90.7900   12.2937 C.ar    1  UNL1        0.1792
      4 C          64.5494   91.6426   12.2413 C.ar    1  UNL1        0.1796
      5 O          65.1075   92.5355   11.1731 O.2     1  UNL1       -0.4473
      6 C          66.3800   93.1379   11.6907 C.ar    1  UNL1        0.1798
      7 C          66.6083   92.6172   13.0787 C.ar    1  UNL1        0.0438
      8 C          65.4769   91.6930   13.4191 C.ar    1  UNL1        0.0405
      9 C          65.1715   90.8909   14.6492 C.ar    1  UNL1       -0.0005
     10 C          63.6330   89.2362   15.9319 C.3     1  UNL1        0.0735
     11 O          63.1742   83.2640   15.5818 O.2     1  UNL1       -0.2711
     12 C          63.2889   84.7571   15.6693 C.2     1  UNL1        0.2671
     13 C          64.2438   85.4897   14.7740 C.3     1  UNL1        0.1159
     14 C          64.3585   86.9827   14.8615 C.2     1  UNL1        0.0002
     15 C          63.5183   87.7432   15.8443 C.2     1  UNL1        0.0789
     16 N          62.5635   87.0106   16.7396 N.2     1  UNL1       -0.1605
     17 N          62.4488   85.5174   16.6520 N.am    1  UNL1       -0.0793
     18 O          62.3887   90.7395   11.1160 O.3     1  UNL1       -0.4504
     19 C          61.8496   89.4226   10.6419 C.ar    1  UNL1        0.1463
     20 C          60.7375   89.3858    9.6359 C.ar    1  UNL1        0.0375
     21 C          60.1983   88.0689    9.1617 C.ar    1  UNL1        0.0040
     22 C          60.7712   86.7886    9.6935 C.ar    1  UNL1        0.0116
     23 C          61.8832   86.8254   10.6994 C.ar    1  UNL1        0.0607
     24 CL         62.4561   85.5451   11.2312 Cl      1  UNL1       -0.0821
     25 C          62.4224   88.1423   11.1736 C.ar    1  UNL1        0.0489
@<TRIPOS>BOND
     1    11    12    2
     2    12    13    1
     3    13    14    1
     4    14    15    2
     5    15    10    1
     6    10     1    1
     7     1     2   ar
     8     2     3   ar
     9     3    18    1
    10    18    19    1
    11    19    20   ar
    12    20    21   ar
    13    21    22   ar
    14    22    23   ar
    15    23    24    1
    16    23    25   ar
    17     3     4   ar
    18     4     5   ar
    19     5     6   ar
    20     6     7   ar
    21     7     8   ar
    22     8     9   ar
    23    15    16    1
    24    16    17    2
    25    17    12    1
    26     9     1   ar
    27    25    19   ar
    28     8     4   ar
@<TRIPOS>MOLECULE
*****
 25 28 0 0 0
SMALL
GASTEIGER

@<TRIPOS>ATOM
      1 C          61.6273   88.9144   11.2784 C.ar    1  UNL1       -0.0129
      2 C          62.3992   87.6293   11.3273 C.ar    1  UNL1        0.0368
      3 C          62.1104   86.5427   10.3343 C.ar    1  UNL1        0.1792
      4 C          61.0497   86.7413    9.2925 C.ar    1  UNL1        0.1796
      5 O          60.5473   85.8566    8.1903 O.2     1  UNL1       -0.4473
      6 C          59.4648   86.5950    7.4603 C.ar    1  UNL1        0.1798
      7 C          59.2982   87.9361    8.1113 C.ar    1  UNL1        0.0438
      8 C          60.2778   88.0265    9.2436 C.ar    1  UNL1        0.0405
      9 C          60.5666   89.1131   10.2366 C.ar    1  UNL1       -0.0005
     10 C          61.9161   90.0011   12.2714 C.3     1  UNL1        0.0735
     11 O          66.7368   93.5035   11.5684 O.2     1  UNL1       -0.2711
     12 C          65.5316   92.6279   11.7441 C.2     1  UNL1        0.2671
     13 C          64.7769   92.1408   10.5428 C.3     1  UNL1        0.1159
     14 C          63.5717   91.2652   10.7186 C.2     1  UNL1        0.0002
     15 C          63.1212   90.8767   12.0956 C.2     1  UNL1        0.0789
     16 N          63.8760   91.3638   13.2969 N.2     1  UNL1       -0.1605
     17 N          65.0812   92.2394   13.1211 N.am    1  UNL1       -0.0793
     18 O          62.8824   85.2575   10.3832 O.3     1  UNL1       -0.4504
     19 C          62.7916   84.3735   11.5916 C.ar    1  UNL1        0.1463
     20 C          62.7079   84.9810   12.9606 C.ar    1  UNL1        0.0375
     21 C          62.6170   84.0972   14.1691 C.ar    1  UNL1        0.0040
     22 C          62.6098   82.6058   14.0086 C.ar    1  UNL1        0.0116
     23 C          62.6935   81.9983   12.6397 C.ar    1  UNL1        0.0607
     24 CL         62.6864   80.5069   12.4793 Cl      1  UNL1       -0.0821
     25 C          62.7844   82.8822   11.4312 C.ar    1  UNL1        0.0489
@<TRIPOS>BOND
     1    11    12    2
     2    12    13    1
     3    13    14    1
     4    14    15    2
     5    15    10    1
     6    10     1    1
     7     1     2   ar
     8     2     3   ar
     9     3    18    1
    10    18    19    1
    11    19    20   ar
    12    20    21   ar
    13    21    22   ar
    14    22    23   ar
    15    23    24    1
    16    23    25   ar
    17     3     4   ar
    18     4     5   ar
    19     5     6   ar
    20     6     7   ar
    21     7     8   ar
    22     8     9   ar
    23    15    16    1
    24    16    17    2
    25    17    12    1
    26     9     1   ar
    27    25    19   ar
    28     8     4   ar
@<TRIPOS>MOLECULE
*****
 25 28 0 0 0
SMALL
GASTEIGER

@<TRIPOS>ATOM
      1 C          62.3475   86.1665   11.1504 C.ar    1  UNL1       -0.0129
      2 C          62.3890   87.6456   11.3958 C.ar    1  UNL1        0.0368
      3 C          61.6100   88.5747   10.5126 C.ar    1  UNL1        0.1792
      4 C          60.7895   88.0244    9.3839 C.ar    1  UNL1        0.1796
      5 O          59.9240   88.6896    8.3550 O.2     1  UNL1       -0.4473
      6 C          59.3476   87.6214    7.4737 C.ar    1  UNL1        0.1798
      7 C          59.8568   86.2961    7.9579 C.ar    1  UNL1        0.0438
      8 C          60.7479   86.5452    9.1385 C.ar    1  UNL1        0.0405
      9 C          61.5269   85.6163   10.0217 C.ar    1  UNL1       -0.0005
     10 C          63.1265   85.2374   12.0336 C.3     1  UNL1        0.0735
     11 O          63.1542   86.0667   17.9760 O.2     1  UNL1       -0.2711
     12 C          63.1472   85.8594   16.4904 C.2     1  UNL1        0.2671
     13 C          64.1722   86.5411   15.6333 C.3     1  UNL1        0.1159
     14 C          64.1653   86.3338   14.1477 C.2     1  UNL1        0.0002
     15 C          63.1334   85.4448   13.5192 C.2     1  UNL1        0.0789
     16 N          62.1085   84.7631   14.3764 N.2     1  UNL1       -0.1605
     17 N          62.1154   84.9704   15.8621 N.am    1  UNL1       -0.0793
     18 O          61.6516   90.0539   10.7581 O.3     1  UNL1       -0.4504
     19 C          62.8679   90.6778   11.3756 C.ar    1  UNL1        0.1463
     20 C          63.1943   90.4181   12.8164 C.ar    1  UNL1        0.0375
     21 C          64.4106   91.0419   13.4341 C.ar    1  UNL1        0.0040
     22 C          65.3005   91.9254   12.6109 C.ar    1  UNL1        0.0116
     23 C          64.9740   92.1850   11.1700 C.ar    1  UNL1        0.0607
     24 CL         65.8638   93.0685   10.3468 Cl      1  UNL1       -0.0821
     25 C          63.7577   91.5612   10.5524 C.ar    1  UNL1        0.0489
@<TRIPOS>BOND
     1    11    12    2
     2    12    13    1
     3    13    14    1
     4    14    15    2
     5    15    10    1
     6    10     1    1
     7     1     2   ar
     8     2     3   ar
     9     3    18    1
    10    18    19    1
    11    19    20   ar
    12    20    21   ar
    13    21    22   ar
    14    22    23   ar
    15    23    24    1
    16    23    25   ar
    17     3     4   ar
    18     4     5   ar
    19     5     6   ar
    20     6     7   ar
    21     7     8   ar
    22     8     9   ar
    23    15    16    1
    24    16    17    2
    25    17    12    1
    26     9     1   ar
    27    25    19   ar
    28     8     4   ar
@<TRIPOS>MOLECULE
*****
 25 28 0 0 0
SMALL
GASTEIGER

@<TRIPOS>ATOM
      1 C          63.4563   86.6406   13.0165 C.ar    1  UNL1       -0.0129
      2 C          63.5955   88.0963   13.3502 C.ar    1  UNL1        0.0368
      3 C          62.9577   89.1315   12.4717 C.ar    1  UNL1        0.1792
      4 C          62.1807   88.7108   11.2596 C.ar    1  UNL1        0.1796
      5 O          61.4469   89.4981   10.2147 O.2     1  UNL1       -0.4473
      6 C          60.8542   88.5288    9.2353 C.ar    1  UNL1        0.1798
      7 C          61.2217   87.1425    9.6749 C.ar    1  UNL1        0.0438
      8 C          62.0415   87.2550   10.9259 C.ar    1  UNL1        0.0405
      9 C          62.6793   86.2199   11.8044 C.ar    1  UNL1       -0.0005
     10 C          64.0941   85.6054   13.8950 C.3     1  UNL1        0.0735
     11 O          62.3807   79.8687   13.5012 O.2     1  UNL1       -0.2711
     12 C          62.8090   81.3029   13.5996 C.2     1  UNL1        0.2671
     13 C          63.8550   81.8389   12.6675 C.3     1  UNL1        0.1159
     14 C          64.2833   83.2730   12.7660 C.2     1  UNL1        0.0002
     15 C          63.6658   84.1712   13.7965 C.2     1  UNL1        0.0789
     16 N          62.6199   83.6352   14.7286 N.2     1  UNL1       -0.1605
     17 N          62.1915   82.2009   14.6301 N.am    1  UNL1       -0.0793
     18 O          63.0970   90.5873   12.8054 O.3     1  UNL1       -0.4504
     19 C          64.3601   91.3185   12.4596 C.ar    1  UNL1        0.1463
     20 C          64.5391   91.8990   11.0881 C.ar    1  UNL1        0.0375
     21 C          65.8023   92.6303   10.7422 C.ar    1  UNL1        0.0040
     22 C          66.8865   92.7810   11.7678 C.ar    1  UNL1        0.0116
     23 C          66.7075   92.2005   13.1393 C.ar    1  UNL1        0.0607
     24 CL         67.7916   92.3512   14.1649 Cl      1  UNL1       -0.0821
     25 C          65.4443   91.4692   13.4852 C.ar    1  UNL1        0.0489
@<TRIPOS>BOND
     1    11    12    2
     2    12    13    1
     3    13    14    1
     4    14    15    2
     5    15    10    1
     6    10     1    1
     7     1     2   ar
     8     2     3   ar
     9     3    18    1
    10    18    19    1
    11    19    20   ar
    12    20    21   ar
    13    21    22   ar
    14    22    23   ar
    15    23    24    1
    16    23    25   ar
    17     3     4   ar
    18     4     5   ar
    19     5     6   ar
    20     6     7   ar
    21     7     8   ar
    22     8     9   ar
    23    15    16    1
    24    16    17    2
    25    17    12    1
    26     9     1   ar
    27    25    19   ar
    28     8     4   ar
