@<TRIPOS>MOLECULE
*****
 30 34 0 0 0
SMALL
GASTEIGER

@<TRIPOS>ATOM
      1 C          62.8147   84.4496   14.9488 C.ar    1  UNL1        0.1840
      2 N          62.2432   84.2818   16.3254 N.ar    1  UNL1       -0.1274
      3 N          62.3327   85.6036   17.0287 N.ar    1  UNL1       -0.1316
      4 C          62.9595   86.5885   16.0868 C.ar    1  UNL1        0.1615
      5 N          63.2574   85.8752   14.8013 N.ar    1  UNL1       -0.2944
      6 C          63.8933   86.6160   13.6625 C.3     1  UNL1        0.1302
      7 C          64.2312   88.0701   13.8092 C.3     1  UNL1        0.1186
      8 N          63.9333   88.7833   15.0947 N.am    1  UNL1       -0.2688
      9 C          64.2712   90.2374   15.2414 C.2     1  UNL1        0.2493
     10 O          63.9733   90.9506   16.5270 O.2     1  UNL1       -0.2699
     11 C          63.2974   88.0425   16.2335 C.3     1  UNL1        0.1343
     12 C          62.9994   88.7557   17.5190 C.3     1  UNL1        0.0298
     13 C          64.2801   82.9313   10.2004 C.3     1  UNL1        0.0521
     14 C          63.6570   82.6205   11.5290 C.ar    1  UNL1        0.0595
     15 C          63.1436   81.2399   11.8120 C.ar    1  UNL1        0.0148
     16 C          62.5205   80.9291   13.1406 C.ar    1  UNL1        0.0029
     17 C          62.4109   81.9991   14.1861 C.ar    1  UNL1        0.0222
     18 C          62.9243   83.3797   13.9032 C.ar    1  UNL1        0.1167
     19 N          63.5474   83.6905   12.5746 N.ar    1  UNL1       -0.2466
     20 C          64.9071   90.9782   14.1027 C.ar    1  UNL1        0.0536
     21 C          66.3346   91.4277   14.2043 C.ar    1  UNL1        0.0045
     22 C          66.9704   92.1685   13.0654 C.ar    1  UNL1        0.0006
     23 C          66.1788   92.4598   11.8250 C.ar    1  UNL1        0.0060
     24 C          64.7514   92.0102   11.7235 C.ar    1  UNL1        0.0006
     25 C          64.1155   91.2695   12.8622 C.ar    1  UNL1        0.0045
     26 C          66.8147   93.2006   10.6862 C.ar    1  UNL1        0.0295
     27 C          67.8011   92.6352    9.7078 C.ar    1  UNL1        0.0070
     28 C          68.1718   93.7220    8.7428 C.ar    1  UNL1        0.0075
     29 C          67.4145   94.9592    9.1247 C.ar    1  UNL1        0.0354
     30 S          66.5757   94.6369   10.3259 S.2     1  UNL1       -0.0864
@<TRIPOS>BOND
     1    13    14    1
     2    14    15   ar
     3    15    16   ar
     4    16    17   ar
     5    17    18   ar
     6    18     1    1
     7     1     2   ar
     8     2     3   ar
     9     3     4   ar
    10     4     5   ar
    11     5     6    1
    12     6     7    1
    13     7     8    1
    14     8     9   am
    15     9    10    2
    16     9    20    1
    17    20    21   ar
    18    21    22   ar
    19    22    23   ar
    20    23    26    1
    21    26    27   ar
    22    27    28   ar
    23    28    29   ar
    24    29    30   ar
    25    23    24   ar
    26    24    25   ar
    27     8    11    1
    28    11    12    1
    29    18    19   ar
    30    19    14   ar
    31     5     1   ar
    32    25    20   ar
    33    11     4    1
    34    30    26   ar
