@<TRIPOS>MOLECULE
*****
 33 36 0 0 0
SMALL
GASTEIGER

@<TRIPOS>ATOM
      1 N          60.6011   88.8602    9.9777 N.3     1  UNL1       -0.1454
      2 S          61.6900   89.6369   10.6566 S.O2    1  UNL1        0.0639
      3 O          62.3016   89.9458    9.3222 O.2     1  UNL1       -0.1528
      4 O          61.0784   89.3280   11.9909 O.2     1  UNL1       -0.1528
      5 C          67.3423   93.5867   14.5243 C.3     1  UNL1        0.0436
      6 C          66.2716   92.5868   14.8467 C.3     1  UNL1        0.1336
      7 C          66.8693   92.7770   16.2093 C.3     1  UNL1        0.0436
      8 C          65.4085   91.6530   15.6423 C.3     1  UNL1        0.0448
      9 C          64.3196   90.8762   14.9634 C.3     1  UNL1        0.0330
     10 C          64.0937   91.0333   13.4889 C.ar    1  UNL1        0.0132
     11 C          63.0048   90.2566   12.8100 C.ar    1  UNL1        0.0186
     12 C          62.7789   90.4137   11.3355 C.ar    1  UNL1        0.1221
     13 C          63.6420   91.3475   10.5398 C.ar    1  UNL1        0.0230
     14 C          64.7310   92.1243   11.2187 C.ar    1  UNL1        0.0379
     15 C          64.9568   91.9671   12.6933 C.ar    1  UNL1        0.1342
     16 O          66.0457   92.7439   13.3722 O.3     1  UNL1       -0.4829
     17 C          59.7692   89.5097    8.9117 C.3     1  UNL1        0.1375
     18 C          59.3795   88.7345    7.6881 C.2     1  UNL1        0.0683
     19 O          59.6178   89.3145    6.3254 O.co2   1  UNL1       -0.5477
     20 O          58.7514   87.3795    7.8272 O.co2   1  UNL1       -0.5477
     21 C          60.3440   87.4340   10.3647 C.3     1  UNL1        0.1225
     22 C          61.3782   86.3836   10.0874 C.ar    1  UNL1       -0.0045
     23 C          62.0947   86.3658    8.7697 C.ar    1  UNL1       -0.0029
     24 C          63.1290   85.3153    8.4925 C.ar    1  UNL1       -0.0003
     25 C          63.4468   84.2827    9.5330 C.ar    1  UNL1       -0.0000
     26 C          62.7303   84.3005   10.8507 C.ar    1  UNL1       -0.0003
     27 C          61.6961   85.3509   11.1279 C.ar    1  UNL1       -0.0029
     28 C          63.0482   83.2678   11.8912 C.ar    1  UNL1       -0.0000
     29 C          62.7828   81.8177   11.6143 C.ar    1  UNL1       -0.0000
     30 C          63.1006   80.7851   12.6548 C.ar    1  UNL1       -0.0000
     31 C          63.6839   81.2026   13.9722 C.ar    1  UNL1        0.0000
     32 C          63.9493   82.6527   14.2491 C.ar    1  UNL1       -0.0000
     33 C          63.6315   83.6853   13.2086 C.ar    1  UNL1       -0.0000
@<TRIPOS>UNITY_ATOM_ATTR
19 1
charge -1
@<TRIPOS>BOND
     1     5     6    1
     2     6     7    1
     3     6     8    1
     4     8     9    1
     5     9    10    1
     6    10    11   ar
     7    11    12   ar
     8    12     2    1
     9     2     3    2
    10     2     4    2
    11     2     1    1
    12     1    17    1
    13    17    18    1
    14    18    19   ar
    15    18    20   ar
    16     1    21    1
    17    21    22    1
    18    22    23   ar
    19    23    24   ar
    20    24    25   ar
    21    25    26   ar
    22    26    28    1
    23    28    29   ar
    24    29    30   ar
    25    30    31   ar
    26    31    32   ar
    27    32    33   ar
    28    26    27   ar
    29    12    13   ar
    30    13    14   ar
    31    14    15   ar
    32    15    16    1
    33    16     6    1
    34    15    10   ar
    35    27    22   ar
    36    33    28   ar
@<TRIPOS>MOLECULE
*****
 33 36 0 0 0
SMALL
GASTEIGER

@<TRIPOS>ATOM
      1 N          60.9467   88.4230   10.3587 N.3     1  UNL1       -0.1454
      2 S          61.9824   89.3275   10.9582 S.O2    1  UNL1        0.0639
      3 O          62.1303   88.3888   12.1188 O.2     1  UNL1       -0.1528
      4 O          61.8345   90.2662    9.7977 O.2     1  UNL1       -0.1528
      5 C          67.3965   93.9394   14.4116 C.3     1  UNL1        0.0436
      6 C          66.4886   92.8121   14.8054 C.3     1  UNL1        0.1336
      7 C          67.1675   93.0706   16.1179 C.3     1  UNL1        0.0436
      8 C          65.8165   91.7747   15.6551 C.3     1  UNL1        0.0448
      9 C          64.7809   90.8702   15.0556 C.3     1  UNL1        0.0330
     10 C          64.4173   91.0033   13.6064 C.ar    1  UNL1        0.0132
     11 C          63.3816   90.0988   13.0069 C.ar    1  UNL1        0.0186
     12 C          63.0181   90.2319   11.5578 C.ar    1  UNL1        0.1221
     13 C          63.6901   91.2694   10.7080 C.ar    1  UNL1        0.0230
     14 C          64.7258   92.1738   11.3076 C.ar    1  UNL1        0.0379
     15 C          65.0894   92.0407   12.7568 C.ar    1  UNL1        0.1342
     16 O          66.1250   92.9452   13.3563 O.3     1  UNL1       -0.4829
     17 C          59.5585   88.3925   10.9263 C.3     1  UNL1        0.1375
     18 C          59.1612   89.3734   11.9893 C.2     1  UNL1        0.0683
     19 O          58.9285   88.9032   13.3946 O.co2   1  UNL1       -0.5477
     20 O          58.9966   90.8245   11.6471 O.co2   1  UNL1       -0.5477
     21 C          61.2992   87.5492    9.1917 C.3     1  UNL1        0.1225
     22 C          62.0581   86.2742    9.4117 C.ar    1  UNL1       -0.0045
     23 C          62.9179   85.7148    8.3173 C.ar    1  UNL1       -0.0029
     24 C          63.6769   84.4397    8.5373 C.ar    1  UNL1       -0.0003
     25 C          63.5759   83.7242    9.8517 C.ar    1  UNL1       -0.0000
     26 C          62.7161   84.2836   10.9461 C.ar    1  UNL1       -0.0003
     27 C          61.9572   85.5585   10.7261 C.ar    1  UNL1       -0.0029
     28 C          62.6152   83.5679   12.2606 C.ar    1  UNL1       -0.0000
     29 C          62.6827   84.3425   13.5434 C.ar    1  UNL1       -0.0000
     30 C          62.5818   83.6268   14.8577 C.ar    1  UNL1       -0.0000
     31 C          62.4134   82.1367   14.8894 C.ar    1  UNL1        0.0000
     32 C          62.3459   81.3621   13.6066 C.ar    1  UNL1       -0.0000
     33 C          62.4468   82.0777   12.2922 C.ar    1  UNL1       -0.0000
@<TRIPOS>UNITY_ATOM_ATTR
19 1
charge -1
@<TRIPOS>BOND
     1     5     6    1
     2     6     7    1
     3     6     8    1
     4     8     9    1
     5     9    10    1
     6    10    11   ar
     7    11    12   ar
     8    12     2    1
     9     2     3    2
    10     2     4    2
    11     2     1    1
    12     1    17    1
    13    17    18    1
    14    18    19   ar
    15    18    20   ar
    16     1    21    1
    17    21    22    1
    18    22    23   ar
    19    23    24   ar
    20    24    25   ar
    21    25    26   ar
    22    26    28    1
    23    28    29   ar
    24    29    30   ar
    25    30    31   ar
    26    31    32   ar
    27    32    33   ar
    28    26    27   ar
    29    12    13   ar
    30    13    14   ar
    31    14    15   ar
    32    15    16    1
    33    16     6    1
    34    15    10   ar
    35    27    22   ar
    36    33    28   ar
@<TRIPOS>MOLECULE
*****
 33 36 0 0 0
SMALL
GASTEIGER

@<TRIPOS>ATOM
      1 N          61.0723   87.4565    9.5862 N.3     1  UNL1       -0.1454
      2 S          61.9249   88.4786   10.2777 S.O2    1  UNL1        0.0639
      3 O          60.8919   88.6099   11.3574 O.2     1  UNL1       -0.1528
      4 O          62.9580   88.3474    9.1981 O.2     1  UNL1       -0.1528
      5 C          66.4270   93.6671   14.1918 C.3     1  UNL1        0.0436
      6 C          65.8090   92.3241   14.4462 C.3     1  UNL1        0.1336
      7 C          66.4973   92.5473   15.7602 C.3     1  UNL1        0.0436
      8 C          65.4301   91.0588   15.1569 C.3     1  UNL1        0.0448
      9 C          64.5775   90.0366   14.4654 C.3     1  UNL1        0.0330
     10 C          64.1038   90.2798   13.0631 C.ar    1  UNL1        0.0132
     11 C          63.2512   89.2576   12.3716 C.ar    1  UNL1        0.0186
     12 C          62.7775   89.5008   10.9693 C.ar    1  UNL1        0.1221
     13 C          63.1564   90.7663   10.2585 C.ar    1  UNL1        0.0230
     14 C          64.0090   91.7884   10.9500 C.ar    1  UNL1        0.0379
     15 C          64.4827   91.5452   12.3524 C.ar    1  UNL1        0.1342
     16 O          65.3353   92.5673   13.0439 O.3     1  UNL1       -0.4829
     17 C          59.6100   87.7172    9.3768 C.3     1  UNL1        0.1375
     18 C          59.0307   87.6721    7.9940 C.2     1  UNL1        0.0683
     19 O          59.0326   88.9049    7.1394 O.co2   1  UNL1       -0.5477
     20 O          58.4494   86.3942    7.4656 O.co2   1  UNL1       -0.5477
     21 C          61.6820   86.1736    9.1040 C.3     1  UNL1        0.1225
     22 C          62.4913   85.3286   10.0426 C.ar    1  UNL1       -0.0045
     23 C          63.2962   84.1792    9.5124 C.ar    1  UNL1       -0.0029
     24 C          64.1055   83.3341   10.4510 C.ar    1  UNL1       -0.0003
     25 C          64.1099   83.6385   11.9198 C.ar    1  UNL1       -0.0000
     26 C          63.3050   84.7878   12.4500 C.ar    1  UNL1       -0.0003
     27 C          62.4957   85.6329   11.5115 C.ar    1  UNL1       -0.0029
     28 C          63.3094   85.0922   13.9189 C.ar    1  UNL1       -0.0000
     29 C          64.1666   86.2014   14.4524 C.ar    1  UNL1       -0.0000
     30 C          64.1710   86.5057   15.9212 C.ar    1  UNL1       -0.0000
     31 C          63.3182   85.7007   16.8564 C.ar    1  UNL1        0.0000
     32 C          62.4610   84.5914   16.3229 C.ar    1  UNL1       -0.0000
     33 C          62.4566   84.2871   14.8541 C.ar    1  UNL1       -0.0000
@<TRIPOS>UNITY_ATOM_ATTR
19 1
charge -1
@<TRIPOS>BOND
     1     5     6    1
     2     6     7    1
     3     6     8    1
     4     8     9    1
     5     9    10    1
     6    10    11   ar
     7    11    12   ar
     8    12     2    1
     9     2     3    2
    10     2     4    2
    11     2     1    1
    12     1    17    1
    13    17    18    1
    14    18    19   ar
    15    18    20   ar
    16     1    21    1
    17    21    22    1
    18    22    23   ar
    19    23    24   ar
    20    24    25   ar
    21    25    26   ar
    22    26    28    1
    23    28    29   ar
    24    29    30   ar
    25    30    31   ar
    26    31    32   ar
    27    32    33   ar
    28    26    27   ar
    29    12    13   ar
    30    13    14   ar
    31    14    15   ar
    32    15    16    1
    33    16     6    1
    34    15    10   ar
    35    27    22   ar
    36    33    28   ar
@<TRIPOS>MOLECULE
*****
 33 36 0 0 0
SMALL
GASTEIGER

@<TRIPOS>ATOM
      1 N          63.8382   83.8281   14.2186 N.3     1  UNL1       -0.1454
      2 S          63.1947   84.4731   13.0269 S.O2    1  UNL1        0.0639
      3 O          64.3683   84.0789   12.1799 O.2     1  UNL1       -0.1528
      4 O          62.0212   84.8673   13.8740 O.2     1  UNL1       -0.1528
      5 C          59.7464   88.1447    6.9330 C.3     1  UNL1        0.0436
      6 C          60.0667   88.4427    8.3678 C.3     1  UNL1        0.1336
      7 C          59.4011   89.7289    7.9769 C.3     1  UNL1        0.0436
      8 C          60.1558   89.1873    9.6669 C.3     1  UNL1        0.0448
      9 C          60.7992   88.5423   10.8585 C.3     1  UNL1        0.0330
     10 C          61.3535   87.1527   10.7511 C.ar    1  UNL1        0.0132
     11 C          61.9970   86.5077   11.9427 C.ar    1  UNL1        0.0186
     12 C          62.5513   85.1181   11.8353 C.ar    1  UNL1        0.1221
     13 C          62.4622   84.3733   10.5362 C.ar    1  UNL1        0.0230
     14 C          61.8188   85.0183    9.3446 C.ar    1  UNL1        0.0379
     15 C          61.2644   86.4080    9.4521 C.ar    1  UNL1        0.1342
     16 O          60.6210   87.0530    8.2604 O.3     1  UNL1       -0.4829
     17 C          63.6811   82.3543   14.4497 C.3     1  UNL1        0.1375
     18 C          62.6367   81.5842   13.6973 C.2     1  UNL1        0.0683
     19 O          62.9824   80.9289   12.3930 O.co2   1  UNL1       -0.5477
     20 O          61.2467   81.4695   14.2490 O.co2   1  UNL1       -0.5477
     21 C          64.6386   84.6568   15.1790 C.3     1  UNL1        0.1225
     22 C          64.1713   86.0321   15.5530 C.ar    1  UNL1       -0.0045
     23 C          63.3894   86.2409   16.8160 C.ar    1  UNL1       -0.0029
     24 C          62.9221   87.6164   17.1900 C.ar    1  UNL1       -0.0003
     25 C          63.2365   88.7829   16.3011 C.ar    1  UNL1       -0.0000
     26 C          64.0184   88.5741   15.0381 C.ar    1  UNL1       -0.0003
     27 C          64.4857   87.1988   14.6641 C.ar    1  UNL1       -0.0029
     28 C          64.3328   89.7407   14.1491 C.ar    1  UNL1       -0.0000
     29 C          65.4380   90.6863   14.5155 C.ar    1  UNL1       -0.0000
     30 C          65.7524   91.8529   13.6265 C.ar    1  UNL1       -0.0000
     31 C          64.9616   92.0738   12.3712 C.ar    1  UNL1        0.0000
     32 C          63.8564   91.1282   12.0049 C.ar    1  UNL1       -0.0000
     33 C          63.5420   89.9617   12.8938 C.ar    1  UNL1       -0.0000
@<TRIPOS>UNITY_ATOM_ATTR
19 1
charge -1
@<TRIPOS>BOND
     1     5     6    1
     2     6     7    1
     3     6     8    1
     4     8     9    1
     5     9    10    1
     6    10    11   ar
     7    11    12   ar
     8    12     2    1
     9     2     3    2
    10     2     4    2
    11     2     1    1
    12     1    17    1
    13    17    18    1
    14    18    19   ar
    15    18    20   ar
    16     1    21    1
    17    21    22    1
    18    22    23   ar
    19    23    24   ar
    20    24    25   ar
    21    25    26   ar
    22    26    28    1
    23    28    29   ar
    24    29    30   ar
    25    30    31   ar
    26    31    32   ar
    27    32    33   ar
    28    26    27   ar
    29    12    13   ar
    30    13    14   ar
    31    14    15   ar
    32    15    16    1
    33    16     6    1
    34    15    10   ar
    35    27    22   ar
    36    33    28   ar
@<TRIPOS>MOLECULE
*****
 33 36 0 0 0
SMALL
GASTEIGER

@<TRIPOS>ATOM
      1 N          63.7250   87.9106   15.6541 N.3     1  UNL1       -0.1454
      2 S          63.9709   89.0192   14.6741 S.O2    1  UNL1        0.0639
      3 O          65.3720   88.5252   14.4668 O.2     1  UNL1       -0.1528
      4 O          62.5698   89.5132   14.8813 O.2     1  UNL1       -0.1528
      5 C          65.4759   95.0021    9.7296 C.3     1  UNL1        0.0436
      6 C          65.8926   94.5703   11.1044 C.3     1  UNL1        0.1336
      7 C          66.6860   95.8370   10.9776 C.3     1  UNL1        0.0436
      8 C          66.5848   94.5783   12.4351 C.3     1  UNL1        0.0448
      9 C          66.3389   93.4697   13.4151 C.3     1  UNL1        0.0330
     10 C          65.4008   92.3531   13.0645 C.ar    1  UNL1        0.0132
     11 C          65.1549   91.2445   14.0446 C.ar    1  UNL1        0.0186
     12 C          64.2168   90.1278   13.6940 C.ar    1  UNL1        0.1221
     13 C          63.5245   90.1197   12.3633 C.ar    1  UNL1        0.0230
     14 C          63.7704   91.2283   11.3832 C.ar    1  UNL1        0.0379
     15 C          64.7086   92.3450   11.7339 C.ar    1  UNL1        0.1342
     16 O          64.9545   93.4536   10.7538 O.3     1  UNL1       -0.4829
     17 C          62.7693   88.1140   16.7923 C.3     1  UNL1        0.1375
     18 C          62.2404   86.9311   17.5480 C.2     1  UNL1        0.0683
     19 O          61.2173   86.0341   16.9165 O.co2   1  UNL1       -0.5477
     20 O          62.7345   86.6452   18.9350 O.co2   1  UNL1       -0.5477
     21 C          64.4348   86.5987   15.4961 C.3     1  UNL1        0.1225
     22 C          63.8691   85.5442   14.5917 C.ar    1  UNL1       -0.0045
     23 C          63.7030   84.1391   15.0899 C.ar    1  UNL1       -0.0029
     24 C          63.1373   83.0846   14.1854 C.ar    1  UNL1       -0.0003
     25 C          62.7378   83.4351   12.7827 C.ar    1  UNL1       -0.0000
     26 C          62.9040   84.8402   12.2845 C.ar    1  UNL1       -0.0003
     27 C          63.4696   85.8947   13.1889 C.ar    1  UNL1       -0.0029
     28 C          62.5044   85.1907   10.8818 C.ar    1  UNL1       -0.0000
     29 C          61.3087   86.0630   10.6383 C.ar    1  UNL1       -0.0000
     30 C          60.9092   86.4134    9.2356 C.ar    1  UNL1       -0.0000
     31 C          61.7055   85.8916    8.0764 C.ar    1  UNL1        0.0000
     32 C          62.9012   85.0194    8.3199 C.ar    1  UNL1       -0.0000
     33 C          63.3007   84.6689    9.7226 C.ar    1  UNL1       -0.0000
@<TRIPOS>UNITY_ATOM_ATTR
19 1
charge -1
@<TRIPOS>BOND
     1     5     6    1
     2     6     7    1
     3     6     8    1
     4     8     9    1
     5     9    10    1
     6    10    11   ar
     7    11    12   ar
     8    12     2    1
     9     2     3    2
    10     2     4    2
    11     2     1    1
    12     1    17    1
    13    17    18    1
    14    18    19   ar
    15    18    20   ar
    16     1    21    1
    17    21    22    1
    18    22    23   ar
    19    23    24   ar
    20    24    25   ar
    21    25    26   ar
    22    26    28    1
    23    28    29   ar
    24    29    30   ar
    25    30    31   ar
    26    31    32   ar
    27    32    33   ar
    28    26    27   ar
    29    12    13   ar
    30    13    14   ar
    31    14    15   ar
    32    15    16    1
    33    16     6    1
    34    15    10   ar
    35    27    22   ar
    36    33    28   ar
@<TRIPOS>MOLECULE
*****
 33 36 0 0 0
SMALL
GASTEIGER

@<TRIPOS>ATOM
      1 N          61.1615   87.9450    9.6238 N.3     1  UNL1       -0.1454
      2 S          62.0156   88.6615   10.6274 S.O2    1  UNL1        0.0639
      3 O          63.0054   88.9911    9.5496 O.2     1  UNL1       -0.1528
      4 O          61.0258   88.3318   11.7052 O.2     1  UNL1       -0.1528
      5 C          66.5860   92.6683   15.6836 C.3     1  UNL1        0.0436
      6 C          66.1403   92.7924   14.2566 C.3     1  UNL1        0.1336
      7 C          67.0034   94.0143   14.3673 C.3     1  UNL1        0.0436
      8 C          65.9944   93.3409   12.8682 C.3     1  UNL1        0.0448
      9 C          65.1403   92.6244   11.8646 C.3     1  UNL1        0.0330
     10 C          64.4321   91.3594   12.2496 C.ar    1  UNL1        0.0132
     11 C          63.5780   90.6429   11.2460 C.ar    1  UNL1        0.0186
     12 C          62.8697   89.3780   11.6309 C.ar    1  UNL1        0.1221
     13 C          63.0156   88.8294   13.0194 C.ar    1  UNL1        0.0230
     14 C          63.8697   89.5459   14.0230 C.ar    1  UNL1        0.0379
     15 C          64.5780   90.8110   13.6380 C.ar    1  UNL1        0.1342
     16 O          65.4321   91.5275   14.6415 O.3     1  UNL1       -0.4829
     17 C          59.7986   88.4727    9.2860 C.3     1  UNL1        0.1375
     18 C          59.1875   88.1709    7.9497 C.2     1  UNL1        0.0683
     19 O          58.4449   86.8848    7.7379 O.co2   1  UNL1       -0.5477
     20 O          59.3189   89.1550    6.8254 O.co2   1  UNL1       -0.5477
     21 C          61.6701   86.7007    8.9582 C.3     1  UNL1        0.1225
     22 C          62.4189   85.6755    9.7569 C.ar    1  UNL1       -0.0045
     23 C          63.1455   84.5646    9.0583 C.ar    1  UNL1       -0.0029
     24 C          63.8944   83.5393    9.8571 C.ar    1  UNL1       -0.0003
     25 C          63.9166   83.6249   11.3545 C.ar    1  UNL1       -0.0000
     26 C          63.1900   84.7357   12.0531 C.ar    1  UNL1       -0.0003
     27 C          62.4412   85.7610   11.2544 C.ar    1  UNL1       -0.0029
     28 C          63.2122   84.8212   13.5506 C.ar    1  UNL1       -0.0000
     29 C          62.2837   83.9695   14.3643 C.ar    1  UNL1       -0.0000
     30 C          62.3059   84.0550   15.8617 C.ar    1  UNL1       -0.0000
     31 C          63.2568   84.9924   16.5453 C.ar    1  UNL1        0.0000
     32 C          64.1854   85.8441   15.7316 C.ar    1  UNL1       -0.0000
     33 C          64.1631   85.7585   14.2342 C.ar    1  UNL1       -0.0000
@<TRIPOS>UNITY_ATOM_ATTR
19 1
charge -1
@<TRIPOS>BOND
     1     5     6    1
     2     6     7    1
     3     6     8    1
     4     8     9    1
     5     9    10    1
     6    10    11   ar
     7    11    12   ar
     8    12     2    1
     9     2     3    2
    10     2     4    2
    11     2     1    1
    12     1    17    1
    13    17    18    1
    14    18    19   ar
    15    18    20   ar
    16     1    21    1
    17    21    22    1
    18    22    23   ar
    19    23    24   ar
    20    24    25   ar
    21    25    26   ar
    22    26    28    1
    23    28    29   ar
    24    29    30   ar
    25    30    31   ar
    26    31    32   ar
    27    32    33   ar
    28    26    27   ar
    29    12    13   ar
    30    13    14   ar
    31    14    15   ar
    32    15    16    1
    33    16     6    1
    34    15    10   ar
    35    27    22   ar
    36    33    28   ar
@<TRIPOS>MOLECULE
*****
 33 36 0 0 0
SMALL
GASTEIGER

@<TRIPOS>ATOM
      1 N          61.4717   89.9343   10.6393 N.3     1  UNL1       -0.1454
      2 S          61.8032   88.4721   10.5936 S.O2    1  UNL1        0.0639
      3 O          62.8577   88.7434    9.5619 O.2     1  UNL1       -0.1528
      4 O          60.7486   88.2008   11.6253 O.2     1  UNL1       -0.1528
      5 C          63.5053   80.7518   10.6842 C.3     1  UNL1        0.0436
      6 C          63.1267   81.8139   11.6736 C.3     1  UNL1        0.1336
      7 C          63.2559   80.6356   12.5929 C.3     1  UNL1        0.0436
      8 C          62.7930   82.4667   12.9822 C.3     1  UNL1        0.0448
      9 C          62.4615   83.9289   13.0279 C.3     1  UNL1        0.0330
     10 C          62.4638   84.7383   11.7650 C.ar    1  UNL1        0.0132
     11 C          62.1324   86.2005   11.8107 C.ar    1  UNL1        0.0186
     12 C          62.1346   87.0099   10.5479 C.ar    1  UNL1        0.1221
     13 C          62.4684   86.3571    9.2392 C.ar    1  UNL1        0.0230
     14 C          62.7998   84.8949    9.1935 C.ar    1  UNL1        0.0379
     15 C          62.7975   84.0855   10.4564 C.ar    1  UNL1        0.1342
     16 O          63.1290   82.6233   10.4107 O.3     1  UNL1       -0.4829
     17 C          60.0632   90.3918   10.4009 C.3     1  UNL1        0.1375
     18 C          59.1785   90.7329   11.5633 C.2     1  UNL1        0.0683
     19 O          58.4916   92.0653   11.6175 O.co2   1  UNL1       -0.5477
     20 O          58.9808   89.7415   12.6715 O.co2   1  UNL1       -0.5477
     21 C          62.5487   90.9389   10.9233 C.3     1  UNL1        0.1225
     22 C          63.4270   90.7764   12.1283 C.ar    1  UNL1       -0.0045
     23 C          64.5561   91.7343   12.3682 C.ar    1  UNL1       -0.0029
     24 C          65.4344   91.5718   13.5733 C.ar    1  UNL1       -0.0003
     25 C          65.1837   90.4512   14.5384 C.ar    1  UNL1       -0.0000
     26 C          64.0546   89.4933   14.2986 C.ar    1  UNL1       -0.0003
     27 C          63.1763   89.6558   13.0935 C.ar    1  UNL1       -0.0029
     28 C          63.8039   88.3727   15.2638 C.ar    1  UNL1       -0.0000
     29 C          63.1046   88.6441   16.5627 C.ar    1  UNL1       -0.0000
     30 C          62.8539   87.5235   17.5278 C.ar    1  UNL1       -0.0000
     31 C          63.3025   86.1316   17.1940 C.ar    1  UNL1        0.0000
     32 C          64.0018   85.8603   15.8951 C.ar    1  UNL1       -0.0000
     33 C          64.2525   86.9808   14.9300 C.ar    1  UNL1       -0.0000
@<TRIPOS>UNITY_ATOM_ATTR
19 1
charge -1
@<TRIPOS>BOND
     1     5     6    1
     2     6     7    1
     3     6     8    1
     4     8     9    1
     5     9    10    1
     6    10    11   ar
     7    11    12   ar
     8    12     2    1
     9     2     3    2
    10     2     4    2
    11     2     1    1
    12     1    17    1
    13    17    18    1
    14    18    19   ar
    15    18    20   ar
    16     1    21    1
    17    21    22    1
    18    22    23   ar
    19    23    24   ar
    20    24    25   ar
    21    25    26   ar
    22    26    28    1
    23    28    29   ar
    24    29    30   ar
    25    30    31   ar
    26    31    32   ar
    27    32    33   ar
    28    26    27   ar
    29    12    13   ar
    30    13    14   ar
    31    14    15   ar
    32    15    16    1
    33    16     6    1
    34    15    10   ar
    35    27    22   ar
    36    33    28   ar
@<TRIPOS>MOLECULE
*****
 33 36 0 0 0
SMALL
GASTEIGER

@<TRIPOS>ATOM
      1 N          63.8541   86.0440   15.4464 N.3     1  UNL1       -0.1454
      2 S          63.7137   84.9615   14.4175 S.O2    1  UNL1        0.0639
      3 O          62.2266   84.9682   14.6134 O.2     1  UNL1       -0.1528
      4 O          65.2009   84.9548   14.2216 O.2     1  UNL1       -0.1528
      5 C          62.8975   79.0421    9.2404 C.3     1  UNL1        0.0436
      6 C          62.7835   79.2400   10.7230 C.3     1  UNL1        0.1336
      7 C          62.4544   77.7796   10.6291 C.3     1  UNL1        0.0436
      8 C          62.5553   78.9308   12.1729 C.3     1  UNL1        0.0448
      9 C          62.6957   80.0133   13.2017 C.3     1  UNL1        0.0330
     10 C          63.0643   81.4049   12.7807 C.ar    1  UNL1        0.0132
     11 C          63.2047   82.4874   13.8096 C.ar    1  UNL1        0.0186
     12 C          63.5733   83.8791   13.3886 C.ar    1  UNL1        0.1221
     13 C          63.8016   84.1884   11.9386 C.ar    1  UNL1        0.0230
     14 C          63.6612   83.1059   10.9097 C.ar    1  UNL1        0.0379
     15 C          63.2925   81.7142   11.3308 C.ar    1  UNL1        0.1342
     16 O          63.1521   80.6317   10.3019 O.3     1  UNL1       -0.4829
     17 C          63.1533   85.9191   16.7667 C.3     1  UNL1        0.1375
     18 C          62.6623   87.1473   17.4743 C.2     1  UNL1        0.0683
     19 O          62.1980   88.3337   16.6825 O.co2   1  UNL1       -0.5477
     20 O          62.6356   87.1890   18.9734 O.co2   1  UNL1       -0.5477
     21 C          64.6953   87.2512   15.1549 C.3     1  UNL1        0.1225
     22 C          64.2253   88.2701   14.1595 C.ar    1  UNL1       -0.0045
     23 C          64.6101   89.7108   14.3224 C.ar    1  UNL1       -0.0029
     24 C          64.1401   90.7297   13.3269 C.ar    1  UNL1       -0.0003
     25 C          63.2854   90.3081   12.1687 C.ar    1  UNL1       -0.0000
     26 C          62.9006   88.8674   12.0058 C.ar    1  UNL1       -0.0003
     27 C          63.3705   87.8485   13.0012 C.ar    1  UNL1       -0.0029
     28 C          62.0458   88.4458   10.8475 C.ar    1  UNL1       -0.0000
     29 C          61.2964   89.4751   10.0546 C.ar    1  UNL1       -0.0000
     30 C          60.4417   89.0534    8.8963 C.ar    1  UNL1       -0.0000
     31 C          60.3363   87.6024    8.5311 C.ar    1  UNL1        0.0000
     32 C          61.0857   86.5731    9.3240 C.ar    1  UNL1       -0.0000
     33 C          61.9404   86.9947   10.4823 C.ar    1  UNL1       -0.0000
@<TRIPOS>UNITY_ATOM_ATTR
19 1
charge -1
@<TRIPOS>BOND
     1     5     6    1
     2     6     7    1
     3     6     8    1
     4     8     9    1
     5     9    10    1
     6    10    11   ar
     7    11    12   ar
     8    12     2    1
     9     2     3    2
    10     2     4    2
    11     2     1    1
    12     1    17    1
    13    17    18    1
    14    18    19   ar
    15    18    20   ar
    16     1    21    1
    17    21    22    1
    18    22    23   ar
    19    23    24   ar
    20    24    25   ar
    21    25    26   ar
    22    26    28    1
    23    28    29   ar
    24    29    30   ar
    25    30    31   ar
    26    31    32   ar
    27    32    33   ar
    28    26    27   ar
    29    12    13   ar
    30    13    14   ar
    31    14    15   ar
    32    15    16    1
    33    16     6    1
    34    15    10   ar
    35    27    22   ar
    36    33    28   ar
@<TRIPOS>MOLECULE
*****
 33 36 0 0 0
SMALL
GASTEIGER

@<TRIPOS>ATOM
      1 N          63.1945   89.5338   12.9813 N.3     1  UNL1       -0.1454
      2 S          63.3195   88.0578   13.2178 S.O2    1  UNL1        0.0639
      3 O          63.7318   88.3200   14.6360 O.2     1  UNL1       -0.1528
      4 O          62.9073   87.7956   11.7996 O.2     1  UNL1       -0.1528
      5 C          63.8078   80.2257   14.1812 C.3     1  UNL1        0.0436
      6 C          63.2225   81.1847   13.1873 C.3     1  UNL1        0.1336
      7 C          62.8287   79.8823   12.5557 C.3     1  UNL1        0.0436
      8 C          62.5004   81.6914   11.9741 C.3     1  UNL1        0.0448
      9 C          62.3754   83.1673   11.7375 C.3     1  UNL1        0.0330
     10 C          62.9725   84.1366   12.7142 C.ar    1  UNL1        0.0132
     11 C          62.8475   85.6126   12.4777 C.ar    1  UNL1        0.0186
     12 C          63.4445   86.5819   13.4543 C.ar    1  UNL1        0.1221
     13 C          64.1666   86.0752   14.6676 C.ar    1  UNL1        0.0230
     14 C          64.2916   84.5993   14.9041 C.ar    1  UNL1        0.0379
     15 C          63.6945   83.6300   13.9274 C.ar    1  UNL1        0.1342
     16 O          63.8195   82.1540   14.1639 O.3     1  UNL1       -0.4829
     17 C          62.5539   90.0401   11.7229 C.3     1  UNL1        0.1375
     18 C          61.0603   90.0296   11.5851 C.2     1  UNL1        0.0683
     19 O          60.4245   90.4189   10.2834 O.co2   1  UNL1       -0.5477
     20 O          60.2025   89.6298   12.7488 O.co2   1  UNL1       -0.5477
     21 C          63.7101   90.5034   14.0030 C.3     1  UNL1        0.1225
     22 C          65.0471   91.1556   13.8104 C.ar    1  UNL1       -0.0045
     23 C          66.0782   91.0878   14.8977 C.ar    1  UNL1       -0.0029
     24 C          67.4152   91.7400   14.7051 C.ar    1  UNL1       -0.0003
     25 C          67.7211   92.4599   13.4252 C.ar    1  UNL1       -0.0000
     26 C          66.6900   92.5276   12.3379 C.ar    1  UNL1       -0.0003
     27 C          65.3530   91.8755   12.5305 C.ar    1  UNL1       -0.0029
     28 C          66.9959   93.2476   11.0580 C.ar    1  UNL1       -0.0000
     29 C          66.5126   94.6528   10.8539 C.ar    1  UNL1       -0.0000
     30 C          66.8186   95.3727    9.5740 C.ar    1  UNL1       -0.0000
     31 C          67.6079   94.6873    8.4982 C.ar    1  UNL1        0.0000
     32 C          68.0912   93.2821    8.7023 C.ar    1  UNL1       -0.0000
     33 C          67.7852   92.5622    9.9822 C.ar    1  UNL1       -0.0000
@<TRIPOS>UNITY_ATOM_ATTR
19 1
charge -1
@<TRIPOS>BOND
     1     5     6    1
     2     6     7    1
     3     6     8    1
     4     8     9    1
     5     9    10    1
     6    10    11   ar
     7    11    12   ar
     8    12     2    1
     9     2     3    2
    10     2     4    2
    11     2     1    1
    12     1    17    1
    13    17    18    1
    14    18    19   ar
    15    18    20   ar
    16     1    21    1
    17    21    22    1
    18    22    23   ar
    19    23    24   ar
    20    24    25   ar
    21    25    26   ar
    22    26    28    1
    23    28    29   ar
    24    29    30   ar
    25    30    31   ar
    26    31    32   ar
    27    32    33   ar
    28    26    27   ar
    29    12    13   ar
    30    13    14   ar
    31    14    15   ar
    32    15    16    1
    33    16     6    1
    34    15    10   ar
    35    27    22   ar
    36    33    28   ar
