@<TRIPOS>MOLECULE
*****
 32 36 0 0 0
SMALL
GASTEIGER

@<TRIPOS>ATOM
      1 C          58.9294   90.3869    5.8357 C.ar    1  UNL1        0.1385
      2 C          58.0184   91.4216    5.2446 C.ar    1  UNL1        0.0384
      3 C          58.5337   92.3648    4.1983 C.ar    1  UNL1        0.0203
      4 C          59.9601   92.2733    3.7432 C.ar    1  UNL1        0.0602
      5 C          60.8711   91.2386    4.3343 C.ar    1  UNL1        0.0204
      6 C          60.3557   90.2954    5.3806 C.ar    1  UNL1        0.0384
      7 C          62.2188   91.3866    3.6926 C.ar    1  UNL1        0.0234
      8 C          62.1407   92.5127    2.7048 C.ar    1  UNL1        0.1143
      9 N          60.7448   93.0608    2.7360 N.ar    1  UNL1       -0.3219
     10 C          60.3685   94.2060    1.8435 C.3     1  UNL1        0.1276
     11 C          61.3882   94.8032    0.9196 C.3     1  UNL1        0.1185
     12 N          62.7841   94.2552    0.8883 N.am    1  UNL1       -0.2688
     13 C          63.1604   93.1099    1.7809 C.2     1  UNL1        0.2652
     14 O          64.5564   92.5618    1.7496 O.2     1  UNL1       -0.2683
     15 O          58.4140   89.4436    6.8821 O.3     1  UNL1       -0.4791
     16 N          61.2600   86.7109    9.0459 N.3     1  UNL1       -0.2737
     17 C          60.3883   86.1711    7.9511 C.3     1  UNL1        0.0758
     18 C          59.4396   87.0820    7.2297 C.3     1  UNL1        0.0609
     19 C          59.3627   88.5327    7.6033 C.3     1  UNL1        0.1687
     20 C          60.2344   89.0725    8.6982 C.3     1  UNL1        0.0609
     21 C          61.1831   88.1616    9.4195 C.3     1  UNL1        0.0758
     22 C          62.2030   85.7460   11.2662 C.3     1  UNL1        0.0173
     23 C          62.2087   85.8000    9.7672 C.3     1  UNL1        0.0576
     24 C          63.1630   84.9429    8.9894 C.3     1  UNL1        0.0173
     25 C          63.8038   94.8524   -0.0356 C.3     1  UNL1        0.1205
     26 C          63.7812   94.5143   -1.4968 C.ar    1  UNL1       -0.0022
     27 C          64.5363   95.3643   -2.4752 C.ar    1  UNL1       -0.0003
     28 C          64.5137   95.0262   -3.9364 C.ar    1  UNL1        0.0294
     29 C          63.7359   93.8380   -4.4192 C.ar    1  UNL1        0.1401
     30 F          63.7132   93.4999   -5.8804 F       1  UNL1       -0.2042
     31 C          62.9807   92.9880   -3.4409 C.ar    1  UNL1        0.0294
     32 C          63.0034   93.3261   -1.9797 C.ar    1  UNL1       -0.0003
@<TRIPOS>BOND
     1    22    23    1
     2    23    24    1
     3    23    16    1
     4    16    17    1
     5    17    18    1
     6    18    19    1
     7    19    15    1
     8    15     1    1
     9     1     2   ar
    10     2     3   ar
    11     3     4   ar
    12     4     5   ar
    13     5     6   ar
    14     5     7   ar
    15     7     8   ar
    16     8     9   ar
    17     9    10    1
    18    10    11    1
    19    11    12    1
    20    12    25    1
    21    25    26    1
    22    26    27   ar
    23    27    28   ar
    24    28    29   ar
    25    29    30    1
    26    29    31   ar
    27    31    32   ar
    28    12    13   am
    29    13    14    2
    30    19    20    1
    31    20    21    1
    32    21    16    1
    33     6     1   ar
    34    13     8    1
    35     9     4   ar
    36    32    26   ar
@<TRIPOS>MOLECULE
*****
 32 36 0 0 0
SMALL
GASTEIGER

@<TRIPOS>ATOM
      1 C          59.2458   89.2145    7.2614 C.ar    1  UNL1        0.1385
      2 C          59.0703   87.7252    7.2946 C.ar    1  UNL1        0.0384
      3 C          59.7943   86.9074    8.3226 C.ar    1  UNL1        0.0203
      4 C          60.6939   87.5789    9.3175 C.ar    1  UNL1        0.0602
      5 C          60.8694   89.0682    9.2844 C.ar    1  UNL1        0.0204
      6 C          60.1454   89.8860    8.2563 C.ar    1  UNL1        0.0384
      7 C          61.8152   89.4480   10.3849 C.ar    1  UNL1        0.0234
      8 C          62.2241   88.1935   11.0983 C.ar    1  UNL1        0.1143
      9 N          61.5311   87.0382   10.4386 N.ar    1  UNL1       -0.3219
     10 C          61.7520   85.6434   10.9440 C.3     1  UNL1        0.1276
     11 C          62.6659   85.4037   12.1090 C.3     1  UNL1        0.1185
     12 N          63.3589   86.5589   12.7687 N.am    1  UNL1       -0.2688
     13 C          63.1380   87.9538   12.2633 C.2     1  UNL1        0.2652
     14 O          63.8311   89.1091   12.9230 O.2     1  UNL1       -0.2683
     15 O          58.5218   90.0323    6.2333 O.3     1  UNL1       -0.4791
     16 N          60.8488   92.4515    3.2362 N.3     1  UNL1       -0.2737
     17 C          59.3738   92.6727    3.3956 C.3     1  UNL1        0.0758
     18 C          58.5981   91.8663    4.3946 C.3     1  UNL1        0.0609
     19 C          59.2974   90.8387    5.2343 C.3     1  UNL1        0.1687
     20 C          60.7725   90.6175    5.0748 C.3     1  UNL1        0.0609
     21 C          61.5481   91.4239    4.0758 C.3     1  UNL1        0.0758
     22 C          61.0184   94.4914    1.6362 C.3     1  UNL1        0.0173
     23 C          61.6244   93.2579    2.2371 C.3     1  UNL1        0.0576
     24 C          63.0061   92.8307    1.8390 C.3     1  UNL1        0.0173
     25 C          64.2729   86.3192   13.9338 C.3     1  UNL1        0.1205
     26 C          63.7832   86.5546   15.3319 C.ar    1  UNL1       -0.0022
     27 C          63.6433   87.9546   15.8519 C.ar    1  UNL1       -0.0003
     28 C          63.1536   88.1900   17.2500 C.ar    1  UNL1        0.0294
     29 C          62.8038   87.0253   18.1281 C.ar    1  UNL1        0.1401
     30 F          62.3141   87.2607   19.5263 F       1  UNL1       -0.2042
     31 C          62.9437   85.6253   17.6082 C.ar    1  UNL1        0.0294
     32 C          63.4334   85.3899   16.2100 C.ar    1  UNL1       -0.0003
@<TRIPOS>BOND
     1    22    23    1
     2    23    24    1
     3    23    16    1
     4    16    17    1
     5    17    18    1
     6    18    19    1
     7    19    15    1
     8    15     1    1
     9     1     2   ar
    10     2     3   ar
    11     3     4   ar
    12     4     5   ar
    13     5     6   ar
    14     5     7   ar
    15     7     8   ar
    16     8     9   ar
    17     9    10    1
    18    10    11    1
    19    11    12    1
    20    12    25    1
    21    25    26    1
    22    26    27   ar
    23    27    28   ar
    24    28    29   ar
    25    29    30    1
    26    29    31   ar
    27    31    32   ar
    28    12    13   am
    29    13    14    2
    30    19    20    1
    31    20    21    1
    32    21    16    1
    33     6     1   ar
    34    13     8    1
    35     9     4   ar
    36    32    26   ar
@<TRIPOS>MOLECULE
*****
 32 36 0 0 0
SMALL
GASTEIGER

@<TRIPOS>ATOM
      1 C          64.9892   91.8726   13.0174 C.ar    1  UNL1        0.1385
      2 C          64.1751   91.4985   11.8143 C.ar    1  UNL1        0.0384
      3 C          63.5997   90.1182   11.6979 C.ar    1  UNL1        0.0203
      4 C          63.8382   89.1120   12.7845 C.ar    1  UNL1        0.0602
      5 C          64.6522   89.4861   13.9875 C.ar    1  UNL1        0.0204
      6 C          65.2277   90.8664   14.1040 C.ar    1  UNL1        0.0384
      7 C          64.7187   88.2913   14.8919 C.ar    1  UNL1        0.0234
      8 C          63.9458   87.1787   14.2479 C.ar    1  UNL1        0.1143
      9 N          63.4016   87.6859   12.9454 N.ar    1  UNL1       -0.3219
     10 C          62.5788   86.7838   12.0741 C.3     1  UNL1        0.1276
     11 C          62.3002   85.3744   12.5054 C.3     1  UNL1        0.1185
     12 N          62.8445   84.8672   13.8079 N.am    1  UNL1       -0.2688
     13 C          63.6673   85.7694   14.6791 C.2     1  UNL1        0.2652
     14 O          64.2115   85.2621   15.9817 O.2     1  UNL1       -0.2683
     15 O          65.5647   93.2529   13.1339 O.3     1  UNL1       -0.4791
     16 N          66.4488   95.6425    9.4247 N.3     1  UNL1       -0.2737
     17 C          66.0895   96.3440   10.7009 C.3     1  UNL1        0.0758
     18 C          65.7948   95.5475   11.9373 C.3     1  UNL1        0.0609
     19 C          65.8594   94.0494   11.8975 C.3     1  UNL1        0.1687
     20 C          66.2187   93.3479   10.6213 C.3     1  UNL1        0.0609
     21 C          66.5134   94.1444    9.3849 C.3     1  UNL1        0.0758
     22 C          68.1570   96.8186    7.8599 C.3     1  UNL1        0.0173
     23 C          66.7435   96.4390    8.1883 C.3     1  UNL1        0.0576
     24 C          65.6246   96.8559    7.2803 C.3     1  UNL1        0.0173
     25 C          62.5659   83.4578   14.2392 C.3     1  UNL1        0.1205
     26 C          62.6584   82.3374   13.2461 C.ar    1  UNL1       -0.0022
     27 C          63.1347   82.6100   11.8501 C.ar    1  UNL1       -0.0003
     28 C          63.2272   81.4896   10.8570 C.ar    1  UNL1        0.0294
     29 C          62.8434   80.0967   11.2600 C.ar    1  UNL1        0.1401
     30 F          62.9359   78.9763   10.2669 F       1  UNL1       -0.2042
     31 C          62.3671   79.8241   12.6560 C.ar    1  UNL1        0.0294
     32 C          62.2746   80.9445   13.6491 C.ar    1  UNL1       -0.0003
@<TRIPOS>BOND
     1    22    23    1
     2    23    24    1
     3    23    16    1
     4    16    17    1
     5    17    18    1
     6    18    19    1
     7    19    15    1
     8    15     1    1
     9     1     2   ar
    10     2     3   ar
    11     3     4   ar
    12     4     5   ar
    13     5     6   ar
    14     5     7   ar
    15     7     8   ar
    16     8     9   ar
    17     9    10    1
    18    10    11    1
    19    11    12    1
    20    12    25    1
    21    25    26    1
    22    26    27   ar
    23    27    28   ar
    24    28    29   ar
    25    29    30    1
    26    29    31   ar
    27    31    32   ar
    28    12    13   am
    29    13    14    2
    30    19    20    1
    31    20    21    1
    32    21    16    1
    33     6     1   ar
    34    13     8    1
    35     9     4   ar
    36    32    26   ar
@<TRIPOS>MOLECULE
*****
 32 36 0 0 0
SMALL
GASTEIGER

@<TRIPOS>ATOM
      1 C          65.0716   91.7964   15.1485 C.ar    1  UNL1        0.1385
      2 C          64.0847   91.7351   16.2765 C.ar    1  UNL1        0.0384
      3 C          63.4593   90.4255   16.6555 C.ar    1  UNL1        0.0203
      4 C          63.8209   89.1771   15.9066 C.ar    1  UNL1        0.0602
      5 C          64.8078   89.2384   14.7787 C.ar    1  UNL1        0.0204
      6 C          65.4331   90.5480   14.3997 C.ar    1  UNL1        0.0384
      7 C          64.9678   87.8527   14.2272 C.ar    1  UNL1        0.0234
      8 C          64.0799   86.9350   15.0142 C.ar    1  UNL1        0.1143
      9 N          63.3710   87.7535   16.0522 N.ar    1  UNL1       -0.3219
     10 C          62.4075   87.0969   16.9957 C.3     1  UNL1        0.1276
     11 C          62.1528   85.6217   16.9013 C.3     1  UNL1        0.1185
     12 N          62.8617   84.8032   15.8633 N.am    1  UNL1       -0.2688
     13 C          63.8252   85.4599   14.9197 C.2     1  UNL1        0.2652
     14 O          64.5342   84.6413   13.8817 O.2     1  UNL1       -0.2683
     15 O          65.6970   93.1061   14.7694 O.3     1  UNL1       -0.4791
     16 N          67.3071   93.7106   10.6111 N.3     1  UNL1       -0.2737
     17 C          67.4840   92.3895   11.2991 C.3     1  UNL1        0.0758
     18 C          66.9472   92.1880   12.6852 C.3     1  UNL1        0.0609
     19 C          66.2337   93.3076   13.3833 C.3     1  UNL1        0.1687
     20 C          66.0569   94.6287   12.6953 C.3     1  UNL1        0.0609
     21 C          66.5936   94.8302   11.3092 C.3     1  UNL1        0.0758
     22 C          67.5604   95.1881    8.4891 C.3     1  UNL1        0.0173
     23 C          67.8438   93.9121    9.2250 C.3     1  UNL1        0.0576
     24 C          68.6639   92.8375    8.5747 C.3     1  UNL1        0.0173
     25 C          62.6070   83.3279   15.7689 C.3     1  UNL1        0.1205
     26 C          62.6649   82.6406   14.4368 C.ar    1  UNL1       -0.0022
     27 C          62.3969   83.4155   13.1808 C.ar    1  UNL1       -0.0003
     28 C          62.4548   82.7283   11.8488 C.ar    1  UNL1        0.0294
     29 C          62.7806   81.2661   11.7728 C.ar    1  UNL1        0.1401
     30 F          62.8384   80.5788   10.4408 F       1  UNL1       -0.2042
     31 C          63.0485   80.4912   13.0289 C.ar    1  UNL1        0.0294
     32 C          62.9906   81.1785   14.3609 C.ar    1  UNL1       -0.0003
@<TRIPOS>BOND
     1    22    23    1
     2    23    24    1
     3    23    16    1
     4    16    17    1
     5    17    18    1
     6    18    19    1
     7    19    15    1
     8    15     1    1
     9     1     2   ar
    10     2     3   ar
    11     3     4   ar
    12     4     5   ar
    13     5     6   ar
    14     5     7   ar
    15     7     8   ar
    16     8     9   ar
    17     9    10    1
    18    10    11    1
    19    11    12    1
    20    12    25    1
    21    25    26    1
    22    26    27   ar
    23    27    28   ar
    24    28    29   ar
    25    29    30    1
    26    29    31   ar
    27    31    32   ar
    28    12    13   am
    29    13    14    2
    30    19    20    1
    31    20    21    1
    32    21    16    1
    33     6     1   ar
    34    13     8    1
    35     9     4   ar
    36    32    26   ar
@<TRIPOS>MOLECULE
*****
 32 36 0 0 0
SMALL
GASTEIGER

@<TRIPOS>ATOM
      1 C          59.3859   89.9524    6.7711 C.ar    1  UNL1        0.1385
      2 C          59.1077   88.5144    6.4479 C.ar    1  UNL1        0.0384
      3 C          59.6513   87.4289    7.3289 C.ar    1  UNL1        0.0203
      4 C          60.4732   87.7815    8.5331 C.ar    1  UNL1        0.0602
      5 C          60.7514   89.2196    8.8564 C.ar    1  UNL1        0.0204
      6 C          60.2078   90.3050    7.9754 C.ar    1  UNL1        0.0384
      7 C          61.5871   89.2615   10.1013 C.ar    1  UNL1        0.0234
      8 C          61.8254   87.8494   10.5474 C.ar    1  UNL1        0.1143
      9 N          61.1370   86.9346    9.5783 N.ar    1  UNL1       -0.3219
     10 C          61.2034   85.4489    9.7726 C.3     1  UNL1        0.1276
     11 C          61.9584   84.8777   10.9361 C.3     1  UNL1        0.1185
     12 N          62.6468   85.7924   11.9053 N.am    1  UNL1       -0.2688
     13 C          62.5804   87.2783   11.7109 C.2     1  UNL1        0.2652
     14 O          63.2689   88.1930   12.6801 O.2     1  UNL1       -0.2683
     15 O          58.8423   91.0380    5.8901 O.3     1  UNL1       -0.4791
     16 N          61.3349   92.6509    2.5085 N.3     1  UNL1       -0.2737
     17 C          59.8862   93.0244    2.6168 C.3     1  UNL1        0.0758
     18 C          59.0553   92.4867    3.7440 C.3     1  UNL1        0.0609
     19 C          59.6731   91.5756    4.7629 C.3     1  UNL1        0.1687
     20 C          61.1219   91.2022    4.6546 C.3     1  UNL1        0.0609
     21 C          61.9528   91.7398    3.5274 C.3     1  UNL1        0.0758
     22 C          63.6605   93.0730    1.4299 C.3     1  UNL1        0.0173
     23 C          62.1658   93.1885    1.3813 C.3     1  UNL1        0.0576
     24 C          61.5019   93.8417    0.2054 C.3     1  UNL1        0.0173
     25 C          63.4018   85.2213   13.0689 C.3     1  UNL1        0.1205
     26 C          63.3064   83.7567   13.3788 C.ar    1  UNL1       -0.0022
     27 C          62.2097   83.2479   14.2666 C.ar    1  UNL1       -0.0003
     28 C          62.1142   81.7833   14.5765 C.ar    1  UNL1        0.0294
     29 C          63.1156   80.8277   13.9986 C.ar    1  UNL1        0.1401
     30 F          63.0201   79.3632   14.3085 F       1  UNL1       -0.2042
     31 C          64.2123   81.3366   13.1108 C.ar    1  UNL1        0.0294
     32 C          64.3078   82.8011   12.8009 C.ar    1  UNL1       -0.0003
@<TRIPOS>BOND
     1    22    23    1
     2    23    24    1
     3    23    16    1
     4    16    17    1
     5    17    18    1
     6    18    19    1
     7    19    15    1
     8    15     1    1
     9     1     2   ar
    10     2     3   ar
    11     3     4   ar
    12     4     5   ar
    13     5     6   ar
    14     5     7   ar
    15     7     8   ar
    16     8     9   ar
    17     9    10    1
    18    10    11    1
    19    11    12    1
    20    12    25    1
    21    25    26    1
    22    26    27   ar
    23    27    28   ar
    24    28    29   ar
    25    29    30    1
    26    29    31   ar
    27    31    32   ar
    28    12    13   am
    29    13    14    2
    30    19    20    1
    31    20    21    1
    32    21    16    1
    33     6     1   ar
    34    13     8    1
    35     9     4   ar
    36    32    26   ar
@<TRIPOS>MOLECULE
*****
 32 36 0 0 0
SMALL
GASTEIGER

@<TRIPOS>ATOM
      1 C          59.3155   90.0588    6.0747 C.ar    1  UNL1        0.1385
      2 C          58.2246   90.9179    5.5075 C.ar    1  UNL1        0.0384
      3 C          58.5287   91.8813    4.3987 C.ar    1  UNL1        0.0203
      4 C          59.9237   91.9856    3.8572 C.ar    1  UNL1        0.0602
      5 C          61.0146   91.1265    4.4245 C.ar    1  UNL1        0.0204
      6 C          60.7105   90.1631    5.5332 C.ar    1  UNL1        0.0384
      7 C          62.2846   91.4473    3.6936 C.ar    1  UNL1        0.0234
      8 C          61.9786   92.5047    2.6746 C.ar    1  UNL1        0.1143
      9 N          60.5195   92.8374    2.7757 N.ar    1  UNL1       -0.3219
     10 C          59.9219   93.8729    1.8700 C.3     1  UNL1        0.1276
     11 C          60.7834   94.5758    0.8631 C.3     1  UNL1        0.1185
     12 N          62.2425   94.2431    0.7620 N.am    1  UNL1       -0.2688
     13 C          62.8401   93.2075    1.6678 C.2     1  UNL1        0.2652
     14 O          64.2993   92.8747    1.5667 O.2     1  UNL1       -0.2683
     15 O          59.0115   89.0954    7.1835 O.3     1  UNL1       -0.4791
     16 N          61.8325   88.7128   10.6686 N.3     1  UNL1       -0.2737
     17 C          61.0662   89.9852   10.4602 C.3     1  UNL1        0.0758
     18 C          60.1258   90.1128    9.2985 C.3     1  UNL1        0.0609
     19 C          59.9518   88.9679    8.3452 C.3     1  UNL1        0.1687
     20 C          60.7182   87.6953    8.5536 C.3     1  UNL1        0.0609
     21 C          61.6585   87.5678    9.7152 C.3     1  UNL1        0.0758
     22 C          63.1265   87.2285   12.3634 C.3     1  UNL1        0.0173
     23 C          62.7728   88.5852   11.8302 C.3     1  UNL1        0.0576
     24 C          63.3596   89.8144   12.4587 C.3     1  UNL1        0.0173
     25 C          63.1041   94.9459   -0.2449 C.3     1  UNL1        0.1205
     26 C          62.5802   95.2114   -1.6251 C.ar    1  UNL1       -0.0022
     27 C          62.5125   94.0986   -2.6286 C.ar    1  UNL1       -0.0003
     28 C          61.9886   94.3641   -4.0088 C.ar    1  UNL1        0.0294
     29 C          61.5324   95.7425   -4.3855 C.ar    1  UNL1        0.1401
     30 F          61.0085   96.0080   -5.7658 F       1  UNL1       -0.2042
     31 C          61.6001   96.8553   -3.3821 C.ar    1  UNL1        0.0294
     32 C          62.1240   96.5898   -2.0018 C.ar    1  UNL1       -0.0003
@<TRIPOS>BOND
     1    22    23    1
     2    23    24    1
     3    23    16    1
     4    16    17    1
     5    17    18    1
     6    18    19    1
     7    19    15    1
     8    15     1    1
     9     1     2   ar
    10     2     3   ar
    11     3     4   ar
    12     4     5   ar
    13     5     6   ar
    14     5     7   ar
    15     7     8   ar
    16     8     9   ar
    17     9    10    1
    18    10    11    1
    19    11    12    1
    20    12    25    1
    21    25    26    1
    22    26    27   ar
    23    27    28   ar
    24    28    29   ar
    25    29    30    1
    26    29    31   ar
    27    31    32   ar
    28    12    13   am
    29    13    14    2
    30    19    20    1
    31    20    21    1
    32    21    16    1
    33     6     1   ar
    34    13     8    1
    35     9     4   ar
    36    32    26   ar
@<TRIPOS>MOLECULE
*****
 32 36 0 0 0
SMALL
GASTEIGER

@<TRIPOS>ATOM
      1 C          65.8670   92.9212   13.5691 C.ar    1  UNL1        0.1385
      2 C          66.4685   92.1387   14.6986 C.ar    1  UNL1        0.0384
      3 C          66.0516   90.7167   14.9314 C.ar    1  UNL1        0.0203
      4 C          65.0332   90.0774   14.0347 C.ar    1  UNL1        0.0602
      5 C          64.4316   90.8599   12.9053 C.ar    1  UNL1        0.0204
      6 C          64.8485   92.2819   12.6725 C.ar    1  UNL1        0.0384
      7 C          63.4576   89.9699   12.1918 C.ar    1  UNL1        0.0234
      8 C          63.4572   88.6372   12.8803 C.ar    1  UNL1        0.1143
      9 N          64.4309   88.7036   14.0193 N.ar    1  UNL1       -0.3219
     10 C          64.6434   87.5047   14.8952 C.3     1  UNL1        0.1276
     11 C          63.8822   86.2392   14.6321 C.3     1  UNL1        0.1185
     12 N          62.9084   86.1728   13.4931 N.am    1  UNL1       -0.2688
     13 C          62.6959   87.3719   12.6172 C.2     1  UNL1        0.2652
     14 O          61.7221   87.3054   11.4781 O.2     1  UNL1       -0.2683
     15 O          66.2838   94.3433   13.3363 O.3     1  UNL1       -0.4791
     16 N          66.3344   96.0181    9.1599 N.3     1  UNL1       -0.2737
     17 C          66.9045   94.6570    9.4291 C.3     1  UNL1        0.0758
     18 C          66.8877   94.0987   10.8212 C.3     1  UNL1        0.0609
     19 C          66.3007   94.9015   11.9442 C.3     1  UNL1        0.1687
     20 C          65.7306   96.2626   11.6750 C.3     1  UNL1        0.0609
     21 C          65.7475   96.8209   10.2829 C.3     1  UNL1        0.0758
     22 C          65.0608   96.8559    7.0561 C.3     1  UNL1        0.0173
     23 C          66.3513   96.5763    7.7678 C.3     1  UNL1        0.0576
     24 C          67.6587   96.8551    7.0873 C.3     1  UNL1        0.0173
     25 C          62.1471   84.9074   13.2300 C.3     1  UNL1        0.1205
     26 C          62.7061   83.8766   12.2945 C.ar    1  UNL1       -0.0022
     27 C          63.4435   84.3049   11.0605 C.ar    1  UNL1       -0.0003
     28 C          64.0025   83.2741   10.1251 C.ar    1  UNL1        0.0294
     29 C          63.8240   81.8150   10.4237 C.ar    1  UNL1        0.1401
     30 F          64.3830   80.7842    9.4883 F       1  UNL1       -0.2042
     31 C          63.0866   81.3867   11.6577 C.ar    1  UNL1        0.0294
     32 C          62.5276   82.4175   12.5932 C.ar    1  UNL1       -0.0003
@<TRIPOS>BOND
     1    22    23    1
     2    23    24    1
     3    23    16    1
     4    16    17    1
     5    17    18    1
     6    18    19    1
     7    19    15    1
     8    15     1    1
     9     1     2   ar
    10     2     3   ar
    11     3     4   ar
    12     4     5   ar
    13     5     6   ar
    14     5     7   ar
    15     7     8   ar
    16     8     9   ar
    17     9    10    1
    18    10    11    1
    19    11    12    1
    20    12    25    1
    21    25    26    1
    22    26    27   ar
    23    27    28   ar
    24    28    29   ar
    25    29    30    1
    26    29    31   ar
    27    31    32   ar
    28    12    13   am
    29    13    14    2
    30    19    20    1
    31    20    21    1
    32    21    16    1
    33     6     1   ar
    34    13     8    1
    35     9     4   ar
    36    32    26   ar
@<TRIPOS>MOLECULE
*****
 32 36 0 0 0
SMALL
GASTEIGER

@<TRIPOS>ATOM
      1 C          63.4595   84.3030   14.8913 C.ar    1  UNL1        0.1385
      2 C          64.1484   85.1461   15.9230 C.ar    1  UNL1        0.0384
      3 C          64.4014   86.6003   15.6560 C.ar    1  UNL1        0.0203
      4 C          63.9656   87.2113   14.3573 C.ar    1  UNL1        0.0602
      5 C          63.2767   86.3682   13.3256 C.ar    1  UNL1        0.0204
      6 C          63.0237   84.9140   13.5926 C.ar    1  UNL1        0.0384
      7 C          62.9634   87.2417   12.1471 C.ar    1  UNL1        0.0234
      8 C          63.4587   88.6247   12.4505 C.ar    1  UNL1        0.1143
      9 N          64.0781   88.6060   13.8165 N.ar    1  UNL1       -0.3219
     10 C          64.6644   89.8612   14.3913 C.3     1  UNL1        0.1276
     11 C          64.6315   91.1351   13.6002 C.3     1  UNL1        0.1185
     12 N          64.0121   91.1538   12.2342 N.am    1  UNL1       -0.2688
     13 C          63.4257   89.8986   11.6593 C.2     1  UNL1        0.2652
     14 O          62.8063   89.9173   10.2932 O.2     1  UNL1       -0.2683
     15 O          63.2065   82.8488   15.1583 O.3     1  UNL1       -0.4791
     16 N          62.8462   79.9605   11.7263 N.3     1  UNL1       -0.2737
     17 C          63.7030   81.1841   11.5900 C.3     1  UNL1        0.0758
     18 C          63.8231   82.1469   12.7340 C.3     1  UNL1        0.0609
     19 C          63.0864   81.8860   14.0143 C.3     1  UNL1        0.1687
     20 C          62.2295   80.6624   14.1506 C.3     1  UNL1        0.0609
     21 C          62.1094   79.6997   13.0066 C.3     1  UNL1        0.0758
     22 C          62.7652   77.5203   10.8382 C.3     1  UNL1        0.0173
     23 C          62.7261   78.9978   10.5823 C.3     1  UNL1        0.0576
     24 C          62.5669   79.5126    9.1824 C.3     1  UNL1        0.0173
     25 C          63.9792   92.4279   11.4430 C.3     1  UNL1        0.1205
     26 C          65.2339   92.9482   10.8066 C.ar    1  UNL1       -0.0022
     27 C          66.4174   92.0433   10.6325 C.ar    1  UNL1       -0.0003
     28 C          67.6722   92.5636    9.9961 C.ar    1  UNL1        0.0294
     29 C          67.7433   93.9887    9.5338 C.ar    1  UNL1        0.1401
     30 F          68.9980   94.5090    8.8974 F       1  UNL1       -0.2042
     31 C          66.5597   94.8936    9.7079 C.ar    1  UNL1        0.0294
     32 C          65.3050   94.3733   10.3443 C.ar    1  UNL1       -0.0003
@<TRIPOS>BOND
     1    22    23    1
     2    23    24    1
     3    23    16    1
     4    16    17    1
     5    17    18    1
     6    18    19    1
     7    19    15    1
     8    15     1    1
     9     1     2   ar
    10     2     3   ar
    11     3     4   ar
    12     4     5   ar
    13     5     6   ar
    14     5     7   ar
    15     7     8   ar
    16     8     9   ar
    17     9    10    1
    18    10    11    1
    19    11    12    1
    20    12    25    1
    21    25    26    1
    22    26    27   ar
    23    27    28   ar
    24    28    29   ar
    25    29    30    1
    26    29    31   ar
    27    31    32   ar
    28    12    13   am
    29    13    14    2
    30    19    20    1
    31    20    21    1
    32    21    16    1
    33     6     1   ar
    34    13     8    1
    35     9     4   ar
    36    32    26   ar
@<TRIPOS>MOLECULE
*****
 32 36 0 0 0
SMALL
GASTEIGER

@<TRIPOS>ATOM
      1 C          63.8265   90.2212   13.6731 C.ar    1  UNL1        0.1385
      2 C          64.3907   89.7205   14.9696 C.ar    1  UNL1        0.0384
      3 C          64.4918   88.2457   15.2238 C.ar    1  UNL1        0.0203
      4 C          64.0287   87.2715   14.1814 C.ar    1  UNL1        0.0602
      5 C          63.4645   87.7722   12.8848 C.ar    1  UNL1        0.0204
      6 C          63.3634   89.2470   12.6307 C.ar    1  UNL1        0.0384
      7 C          63.0915   86.5821   12.0514 C.ar    1  UNL1        0.0234
      8 C          63.4251   85.3460   12.8329 C.ar    1  UNL1        0.1143
      9 N          64.0043   85.7720   14.1493 N.ar    1  UNL1       -0.3219
     10 C          64.4347   84.7396   15.1486 C.3     1  UNL1        0.1276
     11 C          64.2858   83.2811   14.8316 C.3     1  UNL1        0.1185
     12 N          63.7066   82.8550   13.5152 N.am    1  UNL1       -0.2688
     13 C          63.2762   83.8875   12.5158 C.2     1  UNL1        0.2652
     14 O          62.6969   83.4614   11.1993 O.2     1  UNL1       -0.2683
     15 O          63.7254   91.6961   13.4189 O.3     1  UNL1       -0.4791
     16 N          66.5061   93.6689   10.4820 N.3     1  UNL1       -0.2737
     17 C          66.7052   93.8705   11.9549 C.3     1  UNL1        0.0758
     18 C          65.7782   93.2128   12.9340 C.3     1  UNL1        0.0609
     19 C          64.6523   92.3537   12.4399 C.3     1  UNL1        0.1687
     20 C          64.4532   92.1521   10.9669 C.3     1  UNL1        0.0609
     21 C          65.3801   92.8097    9.9879 C.3     1  UNL1        0.0758
     22 C          68.2912   93.4878    8.6030 C.3     1  UNL1        0.0173
     23 C          67.4330   94.3265    9.5030 C.3     1  UNL1        0.0576
     24 C          67.5017   95.8229    9.4241 C.3     1  UNL1        0.0173
     25 C          63.5577   81.3964   13.1981 C.3     1  UNL1        0.1205
     26 C          62.2849   80.6805   13.5408 C.ar    1  UNL1       -0.0022
     27 C          62.2401   79.1813   13.5252 C.ar    1  UNL1       -0.0003
     28 C          60.9672   78.4654   13.8679 C.ar    1  UNL1        0.0294
     29 C          59.7394   79.2487   14.2263 C.ar    1  UNL1        0.1401
     30 F          58.4665   78.5328   14.5690 F       1  UNL1       -0.2042
     31 C          59.7842   80.7480   14.2420 C.ar    1  UNL1        0.0294
     32 C          61.0570   81.4639   13.8992 C.ar    1  UNL1       -0.0003
@<TRIPOS>BOND
     1    22    23    1
     2    23    24    1
     3    23    16    1
     4    16    17    1
     5    17    18    1
     6    18    19    1
     7    19    15    1
     8    15     1    1
     9     1     2   ar
    10     2     3   ar
    11     3     4   ar
    12     4     5   ar
    13     5     6   ar
    14     5     7   ar
    15     7     8   ar
    16     8     9   ar
    17     9    10    1
    18    10    11    1
    19    11    12    1
    20    12    25    1
    21    25    26    1
    22    26    27   ar
    23    27    28   ar
    24    28    29   ar
    25    29    30    1
    26    29    31   ar
    27    31    32   ar
    28    12    13   am
    29    13    14    2
    30    19    20    1
    31    20    21    1
    32    21    16    1
    33     6     1   ar
    34    13     8    1
    35     9     4   ar
    36    32    26   ar
