@<TRIPOS>MOLECULE
*****
 34 38 0 0 0
SMALL
GASTEIGER

@<TRIPOS>ATOM
      1 C          64.2100   89.5531   14.4434 C.ar    1  UNL1        0.1695
      2 N          64.0598   88.1928   13.8294 N.ar    1  UNL1       -0.2191
      3 C          63.5603   87.2579   14.8908 C.ar    1  UNL1        0.1432
      4 C          63.4019   88.0404   16.1606 C.ar    1  UNL1        0.0619
      5 S          63.8034   89.4590   15.8841 S.2     1  UNL1       -0.0504
      6 C          65.8623   94.6288   10.8223 C.ar    1  UNL1        0.1389
      7 C          66.6042   95.0466   12.0572 C.ar    1  UNL1        0.0366
      8 C          66.5648   94.1840   13.2837 C.ar    1  UNL1        0.0007
      9 C          65.7837   92.9035   13.2753 C.ar    1  UNL1        0.0027
     10 C          65.0418   92.4857   12.0404 C.ar    1  UNL1        0.0546
     11 C          65.0812   93.3483   10.8139 C.ar    1  UNL1        0.0412
     12 C          64.3620   91.1797   12.3277 C.2     1  UNL1        0.2543
     13 O          63.5101   90.3999   11.3705 O.2     1  UNL1       -0.2695
     14 N          64.6838   90.7905   13.7401 N.am    1  UNL1       -0.2308
     15 C          65.5624   91.8559   14.3258 C.3     1  UNL1        0.1271
     16 C          67.1880   95.6697    8.8452 C.3     1  UNL1        0.2525
     17 O          65.9016   95.4914    9.5958 O.3     1  UNL1       -0.4714
     18 C          63.2703   85.7970   14.7134 C.2     1  UNL1        0.2679
     19 O          62.3205   85.1025   15.6438 O.2     1  UNL1       -0.2681
     20 N          63.9299   85.0305   13.6056 N.am    1  UNL1       -0.2769
     21 H          64.5532   85.4863   12.9949 H       1  UNL1        0.1553
     22 C          63.6398   83.5695   13.4282 C.ar    1  UNL1        0.0835
     23 C          63.8987   82.6115   14.5529 C.ar    1  UNL1        0.1147
     24 N          63.6086   81.1505   14.3755 N.ar    1  UNL1       -0.2409
     25 C          63.0597   80.6476   13.0733 C.ar    1  UNL1        0.1002
     26 C          62.8008   81.6056   11.9485 C.ar    1  UNL1        0.0365
     27 C          63.0909   83.0666   12.1260 C.ar    1  UNL1        0.0647
     28 N          62.8320   84.0246   11.0012 N.pl3   1  UNL1       -0.3036
     29 C          63.5543   83.8623    9.6965 C.3     1  UNL1        0.1079
     30 C          63.2954   84.8205    8.5717 C.3     1  UNL1        0.0903
     31 N          62.3143   85.9408    8.7516 N.3     1  UNL1       -0.2946
     32 C          61.5921   86.1031   10.0562 C.3     1  UNL1        0.0903
     33 C          61.8509   85.1450   11.1810 C.3     1  UNL1        0.1079
     34 H          61.6004   85.8254    8.0322 H       1  UNL1        0.1233
@<TRIPOS>BOND
     1    16    17    1
     2    17     6    1
     3     6     7   ar
     4     7     8   ar
     5     8     9   ar
     6     9    10   ar
     7    10    11   ar
     8    10    12    1
     9    12    13    2
    10    12    14   am
    11    14     1    1
    12     1     2   ar
    13     2     3   ar
    14     3    18    1
    15    18    19    2
    16    18    20   am
    17    20    22    1
    18    22    23   ar
    19    23    24   ar
    20    24    25   ar
    21    25    26   ar
    22    26    27   ar
    23    27    28    1
    24    28    29    1
    25    29    30    1
    26    30    31    1
    27    31    32    1
    28    32    33    1
    29     3     4   ar
    30     4     5   ar
    31    14    15    1
    32    11     6   ar
    33     5     1   ar
    34    15     9    1
    35    27    22   ar
    36    33    28    1
    37    20    21    1
    38    31    34    1
@<TRIPOS>MOLECULE
*****
 34 38 0 0 0
SMALL
GASTEIGER

@<TRIPOS>ATOM
      1 C          63.2302   85.9117   15.2244 C.ar    1  UNL1        0.1695
      2 N          63.8257   87.1587   14.6408 N.ar    1  UNL1       -0.2191
      3 C          63.7665   88.2334   15.6857 C.ar    1  UNL1        0.1432
      4 C          63.1345   87.6505   16.9149 C.ar    1  UNL1        0.0619
      5 S          62.8031   86.2156   16.6297 S.2     1  UNL1       -0.0504
      6 C          62.7231   80.6156   11.5777 C.ar    1  UNL1        0.1389
      7 C          62.5145   79.9379   12.8994 C.ar    1  UNL1        0.0366
      8 C          62.5343   80.7416   14.1658 C.ar    1  UNL1        0.0007
      9 C          62.7625   82.2231   14.1104 C.ar    1  UNL1        0.0027
     10 C          62.9710   82.9008   12.7886 C.ar    1  UNL1        0.0546
     11 C          62.9513   82.0971   11.5222 C.ar    1  UNL1        0.0412
     12 C          63.1716   84.3651   13.0450 C.2     1  UNL1        0.2543
     13 O          63.4142   85.4174   12.0039 O.2     1  UNL1       -0.2695
     14 N          63.0871   84.5923   14.5252 N.am    1  UNL1       -0.2308
     15 C          62.8342   83.2684   15.1837 C.3     1  UNL1        0.1271
     16 C          62.7274   78.3134   10.3736 C.3     1  UNL1        0.2525
     17 O          62.7034   79.8119   10.3113 O.3     1  UNL1       -0.4714
     18 C          64.2537   89.6432   15.5288 C.2     1  UNL1        0.2679
     19 O          63.6293   90.7463   16.3310 O.2     1  UNL1       -0.2681
     20 N          65.3654   89.9502   14.5697 N.am    1  UNL1       -0.2769
     21 H          65.7753   89.2263   14.0432 H       1  UNL1        0.1553
     22 C          65.8527   91.3602   14.4128 C.ar    1  UNL1        0.0835
     23 C          66.8379   91.9266   15.3918 C.ar    1  UNL1        0.1147
     24 N          67.3252   93.3365   15.2350 N.ar    1  UNL1       -0.2409
     25 C          66.8272   94.1801   14.0990 C.ar    1  UNL1        0.1002
     26 C          65.8420   93.6138   13.1200 C.ar    1  UNL1        0.0365
     27 C          65.3547   92.2038   13.2769 C.ar    1  UNL1        0.0647
     28 N          64.3695   91.6375   12.2979 N.pl3   1  UNL1       -0.3036
     29 C          64.4804   91.9767   10.8409 C.3     1  UNL1        0.1079
     30 C          63.4950   91.4103    9.8619 C.3     1  UNL1        0.0903
     31 N          62.3989   90.5047   10.3398 N.3     1  UNL1       -0.2946
     32 C          62.2881   90.1655   11.7967 C.3     1  UNL1        0.0903
     33 C          63.2733   90.7318   12.7757 C.3     1  UNL1        0.1079
     34 H          62.5068   89.6224    9.8394 H       1  UNL1        0.1233
@<TRIPOS>BOND
     1    16    17    1
     2    17     6    1
     3     6     7   ar
     4     7     8   ar
     5     8     9   ar
     6     9    10   ar
     7    10    11   ar
     8    10    12    1
     9    12    13    2
    10    12    14   am
    11    14     1    1
    12     1     2   ar
    13     2     3   ar
    14     3    18    1
    15    18    19    2
    16    18    20   am
    17    20    22    1
    18    22    23   ar
    19    23    24   ar
    20    24    25   ar
    21    25    26   ar
    22    26    27   ar
    23    27    28    1
    24    28    29    1
    25    29    30    1
    26    30    31    1
    27    31    32    1
    28    32    33    1
    29     3     4   ar
    30     4     5   ar
    31    14    15    1
    32    11     6   ar
    33     5     1   ar
    34    15     9    1
    35    27    22   ar
    36    33    28    1
    37    20    21    1
    38    31    34    1
@<TRIPOS>MOLECULE
*****
 34 38 0 0 0
SMALL
GASTEIGER

@<TRIPOS>ATOM
      1 C          63.0779   86.8237   12.5486 C.ar    1  UNL1        0.1695
      2 N          63.8381   87.6494   13.5438 N.ar    1  UNL1       -0.2191
      3 C          63.6789   89.0925   13.1667 C.ar    1  UNL1        0.1432
      4 C          62.8204   89.1587   11.9385 C.ar    1  UNL1        0.0619
      5 S          62.4489   87.7564   11.5565 S.2     1  UNL1       -0.0504
      6 C          62.7214   80.4274   11.7972 C.ar    1  UNL1        0.1389
      7 C          62.4810   80.4428   13.2778 C.ar    1  UNL1        0.0366
      8 C          62.4575   81.7459   14.0203 C.ar    1  UNL1        0.0007
      9 C          62.6744   83.0337   13.2823 C.ar    1  UNL1        0.0027
     10 C          62.9147   83.0183   11.8018 C.ar    1  UNL1        0.0546
     11 C          62.9382   81.7152   11.0593 C.ar    1  UNL1        0.0412
     12 C          63.0951   84.4362   11.3467 C.2     1  UNL1        0.2543
     13 O          63.3582   84.8838    9.9394 O.2     1  UNL1       -0.2695
     14 N          62.9663   85.3279   12.5460 N.am    1  UNL1       -0.2308
     15 C          62.7062   84.4610   13.7422 C.3     1  UNL1        0.1271
     16 C          62.7983   79.1161    9.5557 C.3     1  UNL1        0.2525
     17 O          62.7449   79.1243   11.0547 O.3     1  UNL1       -0.4714
     18 C          64.2738   90.2637   13.8907 C.2     1  UNL1        0.2679
     19 O          63.3886   91.1969   14.6625 O.2     1  UNL1       -0.2681
     20 N          65.7540   90.5018   13.8430 N.am    1  UNL1       -0.2769
     21 H          66.3350   89.8894   13.3365 H       1  UNL1        0.1553
     22 C          66.3489   91.6731   14.5671 C.ar    1  UNL1        0.0835
     23 C          66.2759   91.7456   16.0635 C.ar    1  UNL1        0.1147
     24 N          66.8708   92.9169   16.7876 N.ar    1  UNL1       -0.2409
     25 C          67.5388   94.0156   16.0152 C.ar    1  UNL1        0.1002
     26 C          67.6119   93.9431   14.5187 C.ar    1  UNL1        0.0365
     27 C          67.0169   92.7718   13.7947 C.ar    1  UNL1        0.0647
     28 N          67.0900   92.6992   12.2982 N.pl3   1  UNL1       -0.3036
     29 C          66.0474   93.3809   11.4625 C.3     1  UNL1        0.1079
     30 C          66.1205   93.3083    9.9660 C.3     1  UNL1        0.0903
     31 N          67.2361   92.5541    9.3053 N.3     1  UNL1       -0.2946
     32 C          68.2787   91.8725   10.1410 C.3     1  UNL1        0.0903
     33 C          68.2056   91.9451   11.6374 C.3     1  UNL1        0.1079
     34 H          67.7267   93.2186    8.7067 H       1  UNL1        0.1233
@<TRIPOS>BOND
     1    16    17    1
     2    17     6    1
     3     6     7   ar
     4     7     8   ar
     5     8     9   ar
     6     9    10   ar
     7    10    11   ar
     8    10    12    1
     9    12    13    2
    10    12    14   am
    11    14     1    1
    12     1     2   ar
    13     2     3   ar
    14     3    18    1
    15    18    19    2
    16    18    20   am
    17    20    22    1
    18    22    23   ar
    19    23    24   ar
    20    24    25   ar
    21    25    26   ar
    22    26    27   ar
    23    27    28    1
    24    28    29    1
    25    29    30    1
    26    30    31    1
    27    31    32    1
    28    32    33    1
    29     3     4   ar
    30     4     5   ar
    31    14    15    1
    32    11     6   ar
    33     5     1   ar
    34    15     9    1
    35    27    22   ar
    36    33    28    1
    37    20    21    1
    38    31    34    1
@<TRIPOS>MOLECULE
*****
 34 38 0 0 0
SMALL
GASTEIGER

@<TRIPOS>ATOM
      1 C          63.7393   86.7366   14.1967 C.ar    1  UNL1        0.1695
      2 N          63.8345   87.8605   13.2079 N.ar    1  UNL1       -0.2191
      3 C          63.9948   89.1399   13.9745 C.ar    1  UNL1        0.1432
      4 C          63.9987   88.8066   15.4370 C.ar    1  UNL1        0.0619
      5 S          63.8408   87.3212   15.5743 S.2     1  UNL1       -0.0504
      6 C          62.7827   80.7127   12.0986 C.ar    1  UNL1        0.1389
      7 C          63.2671   80.3450   13.4697 C.ar    1  UNL1        0.0366
      8 C          63.6542   81.4199   14.4417 C.ar    1  UNL1        0.0007
      9 C          63.5569   82.8625   14.0426 C.ar    1  UNL1        0.0027
     10 C          63.0725   83.2302   12.6715 C.ar    1  UNL1        0.0546
     11 C          62.6854   82.1553   11.6995 C.ar    1  UNL1        0.0412
     12 C          63.0818   84.7263   12.5623 C.2     1  UNL1        0.2543
     13 O          62.6728   85.5251   11.3604 O.2     1  UNL1       -0.2695
     14 N          63.5721   85.2831   13.8659 N.am    1  UNL1       -0.2308
     15 C          63.8656   84.1312   14.7808 C.3     1  UNL1        0.1271
     16 C          63.0544   79.5711    9.7807 C.3     1  UNL1        0.2525
     17 O          62.3957   79.6378   11.1266 O.3     1  UNL1       -0.4714
     18 C          64.1279   90.5116   13.3825 C.2     1  UNL1        0.2679
     19 O          63.0663   91.5420   13.6308 O.2     1  UNL1       -0.2681
     20 N          65.3225   90.8532   12.5422 N.am    1  UNL1       -0.2769
     21 H          66.0192   90.1770   12.3792 H       1  UNL1        0.1553
     22 C          65.4555   92.2250   11.9501 C.ar    1  UNL1        0.0835
     23 C          64.7886   92.5468   10.6457 C.ar    1  UNL1        0.1147
     24 N          64.9217   93.9186   10.0536 N.ar    1  UNL1       -0.2409
     25 C          65.7216   94.9686   10.7660 C.ar    1  UNL1        0.1002
     26 C          66.3886   94.6468   12.0705 C.ar    1  UNL1        0.0365
     27 C          66.2555   93.2750   12.6625 C.ar    1  UNL1        0.0647
     28 N          66.9224   92.9532   13.9670 N.pl3   1  UNL1       -0.3036
     29 C          66.1256   92.9573   15.2378 C.3     1  UNL1        0.1079
     30 C          66.7926   92.6354   16.5423 C.3     1  UNL1        0.0903
     31 N          68.2564   92.3095   16.5759 N.3     1  UNL1       -0.2946
     32 C          69.0532   92.3054   15.3051 C.3     1  UNL1        0.0903
     33 C          68.3863   92.6272   14.0006 C.3     1  UNL1        0.1079
     34 H          68.3411   91.3766   16.9796 H       1  UNL1        0.1233
@<TRIPOS>BOND
     1    16    17    1
     2    17     6    1
     3     6     7   ar
     4     7     8   ar
     5     8     9   ar
     6     9    10   ar
     7    10    11   ar
     8    10    12    1
     9    12    13    2
    10    12    14   am
    11    14     1    1
    12     1     2   ar
    13     2     3   ar
    14     3    18    1
    15    18    19    2
    16    18    20   am
    17    20    22    1
    18    22    23   ar
    19    23    24   ar
    20    24    25   ar
    21    25    26   ar
    22    26    27   ar
    23    27    28    1
    24    28    29    1
    25    29    30    1
    26    30    31    1
    27    31    32    1
    28    32    33    1
    29     3     4   ar
    30     4     5   ar
    31    14    15    1
    32    11     6   ar
    33     5     1   ar
    34    15     9    1
    35    27    22   ar
    36    33    28    1
    37    20    21    1
    38    31    34    1
@<TRIPOS>MOLECULE
*****
 34 38 0 0 0
SMALL
GASTEIGER

@<TRIPOS>ATOM
      1 C          63.0169   87.2677   12.2971 C.ar    1  UNL1        0.1695
      2 N          63.9174   87.9920   13.2535 N.ar    1  UNL1       -0.2191
      3 C          63.6139   89.4578   13.1560 C.ar    1  UNL1        0.1432
      4 C          62.5259   89.6393   12.1395 C.ar    1  UNL1        0.0619
      5 S          62.1570   88.2857   11.6087 S.2     1  UNL1       -0.0504
      6 C          62.6755   80.8317   12.0402 C.ar    1  UNL1        0.1389
      7 C          63.0641   81.0431   10.6070 C.ar    1  UNL1        0.0366
      8 C          63.2882   82.4324   10.0877 C.ar    1  UNL1        0.0007
      9 C          63.1238   83.6103   11.0017 C.ar    1  UNL1        0.0027
     10 C          62.7352   83.3989   12.4350 C.ar    1  UNL1        0.0546
     11 C          62.5111   82.0096   12.9542 C.ar    1  UNL1        0.0412
     12 C          62.6479   84.7433   13.0947 C.2     1  UNL1        0.2543
     13 O          62.2890   85.0002   14.5283 O.2     1  UNL1       -0.2695
     14 N          62.9825   85.7855   12.0692 N.am    1  UNL1       -0.2308
     15 C          63.2766   85.0853   10.7756 C.3     1  UNL1        0.1271
     16 C          61.9371   79.2366   13.9534 C.3     1  UNL1        0.2525
     17 O          62.4514   79.4424   12.5595 O.3     1  UNL1       -0.4714
     18 C          64.2812   90.5501   13.9379 C.2     1  UNL1        0.2679
     19 O          63.5031   91.3232   14.9610 O.2     1  UNL1       -0.2681
     20 N          65.7269   90.8695   13.6967 N.am    1  UNL1       -0.2769
     21 H          66.2377   90.3621   13.0252 H       1  UNL1        0.1553
     22 C          66.3942   91.9619   14.4785 C.ar    1  UNL1        0.0835
     23 C          66.5102   91.8533   15.9701 C.ar    1  UNL1        0.1147
     24 N          67.1775   92.9457   16.7520 N.ar    1  UNL1       -0.2409
     25 C          67.7290   94.1467   16.0423 C.ar    1  UNL1        0.1002
     26 C          67.6131   94.2552   14.5507 C.ar    1  UNL1        0.0365
     27 C          66.9457   93.1628   13.7689 C.ar    1  UNL1        0.0647
     28 N          66.8298   93.2713   12.2773 N.pl3   1  UNL1       -0.3036
     29 C          67.6242   92.3549   11.3946 C.3     1  UNL1        0.1079
     30 C          67.5082   92.4635    9.9030 C.3     1  UNL1        0.0903
     31 N          66.5979   93.4884    9.2941 N.3     1  UNL1       -0.2946
     32 C          65.8035   94.4049   10.1768 C.3     1  UNL1        0.0903
     33 C          65.9194   94.2963   11.6683 C.3     1  UNL1        0.1079
     34 H          65.9272   92.9809    8.7171 H       1  UNL1        0.1233
@<TRIPOS>BOND
     1    16    17    1
     2    17     6    1
     3     6     7   ar
     4     7     8   ar
     5     8     9   ar
     6     9    10   ar
     7    10    11   ar
     8    10    12    1
     9    12    13    2
    10    12    14   am
    11    14     1    1
    12     1     2   ar
    13     2     3   ar
    14     3    18    1
    15    18    19    2
    16    18    20   am
    17    20    22    1
    18    22    23   ar
    19    23    24   ar
    20    24    25   ar
    21    25    26   ar
    22    26    27   ar
    23    27    28    1
    24    28    29    1
    25    29    30    1
    26    30    31    1
    27    31    32    1
    28    32    33    1
    29     3     4   ar
    30     4     5   ar
    31    14    15    1
    32    11     6   ar
    33     5     1   ar
    34    15     9    1
    35    27    22   ar
    36    33    28    1
    37    20    21    1
    38    31    34    1
@<TRIPOS>MOLECULE
*****
 34 38 0 0 0
SMALL
GASTEIGER

@<TRIPOS>ATOM
      1 C          63.0855   89.2479   11.5692 C.ar    1  UNL1        0.1695
      2 N          63.3715   87.9237   12.2131 N.ar    1  UNL1       -0.2191
      3 C          62.3493   86.9405   11.7246 C.ar    1  UNL1        0.1432
      4 C          61.4318   87.6571   10.7789 C.ar    1  UNL1        0.0619
      5 S          61.8868   89.0832   10.6828 S.2     1  UNL1       -0.0504
      6 C          66.2116   94.8866   11.7620 C.ar    1  UNL1        0.1389
      7 C          66.5928   94.4287   13.1386 C.ar    1  UNL1        0.0366
      8 C          66.1109   93.1028   13.6482 C.ar    1  UNL1        0.0007
      9 C          65.2478   92.2348   12.7813 C.ar    1  UNL1        0.0027
     10 C          64.8666   92.6927   11.4047 C.ar    1  UNL1        0.0546
     11 C          65.3485   94.0186   10.8951 C.ar    1  UNL1        0.0412
     12 C          64.0102   91.6296   10.7831 C.2     1  UNL1        0.2543
     13 O          63.4077   91.6737    9.4101 O.2     1  UNL1       -0.2695
     14 N          63.8621   90.5146   11.7755 N.am    1  UNL1       -0.2308
     15 C          64.6270   90.8887   13.0104 C.3     1  UNL1        0.1271
     16 C          66.9520   96.4039    9.7873 C.3     1  UNL1        0.2525
     17 O          66.6935   96.2125   11.2524 O.3     1  UNL1       -0.4714
     18 C          62.2604   85.4946   12.1136 C.2     1  UNL1        0.2679
     19 O          61.2218   85.0452   13.0982 O.2     1  UNL1       -0.2681
     20 N          63.2101   84.4979   11.5181 N.am    1  UNL1       -0.2769
     21 H          63.8918   84.7928   10.8719 H       1  UNL1        0.1553
     22 C          63.1212   83.0520   11.9072 C.ar    1  UNL1        0.0835
     23 C          62.8598   82.0087   10.8616 C.ar    1  UNL1        0.1147
     24 N          62.7709   80.5627   11.2506 N.ar    1  UNL1       -0.2409
     25 C          62.9434   80.1600   12.6852 C.ar    1  UNL1        0.1002
     26 C          63.2048   81.2033   13.7308 C.ar    1  UNL1        0.0365
     27 C          63.2937   82.6493   13.3418 C.ar    1  UNL1        0.0647
     28 N          63.5551   83.6925   14.3873 N.pl3   1  UNL1       -0.3036
     29 C          64.7949   84.5336   14.3141 C.3     1  UNL1        0.1079
     30 C          65.0563   85.5770   15.3597 C.3     1  UNL1        0.0903
     31 N          64.0779   85.7791   16.4785 N.3     1  UNL1       -0.2946
     32 C          62.8380   84.9380   16.5518 C.3     1  UNL1        0.0903
     33 C          62.5766   83.8948   15.5062 C.3     1  UNL1        0.1079
     34 H          63.7720   86.7510   16.4301 H       1  UNL1        0.1233
@<TRIPOS>BOND
     1    16    17    1
     2    17     6    1
     3     6     7   ar
     4     7     8   ar
     5     8     9   ar
     6     9    10   ar
     7    10    11   ar
     8    10    12    1
     9    12    13    2
    10    12    14   am
    11    14     1    1
    12     1     2   ar
    13     2     3   ar
    14     3    18    1
    15    18    19    2
    16    18    20   am
    17    20    22    1
    18    22    23   ar
    19    23    24   ar
    20    24    25   ar
    21    25    26   ar
    22    26    27   ar
    23    27    28    1
    24    28    29    1
    25    29    30    1
    26    30    31    1
    27    31    32    1
    28    32    33    1
    29     3     4   ar
    30     4     5   ar
    31    14    15    1
    32    11     6   ar
    33     5     1   ar
    34    15     9    1
    35    27    22   ar
    36    33    28    1
    37    20    21    1
    38    31    34    1
