@<TRIPOS>MOLECULE
*****
 31 35 0 0 0
SMALL
GASTEIGER

@<TRIPOS>ATOM
      1 C          61.6614   89.2933   11.6816 C.ar    1  UNL1        0.2490
      2 N          60.9123   90.4176   11.0298 N.ar    1  UNL1       -0.1863
      3 C          60.1576   90.1768    9.7560 C.ar    1  UNL1        0.2225
      4 N          60.1520   88.8119    9.1341 N.ar    1  UNL1       -0.1420
      5 N          60.9011   87.6877    9.7859 N.ar    1  UNL1       -0.2193
      6 C          61.0762   86.2464    9.4088 C.ar    1  UNL1        0.1371
      7 C          61.9391   85.5964   10.4494 C.ar    1  UNL1        0.1552
      8 C          62.2973   86.6360   11.4697 C.ar    1  UNL1        0.0359
      9 C          63.1477   86.4208   12.6865 C.3     1  UNL1        0.0360
     10 C          61.6558   87.9284   11.0597 C.ar    1  UNL1        0.1353
     11 O          62.4162   89.5341   12.9554 O.3     1  UNL1       -0.4328
     12 C          68.9483   93.1895   15.3203 C.3     1  UNL1        0.0521
     13 C          67.7355   92.6434   14.6267 C.2     1  UNL1        0.0591
     14 C          66.7781   91.6344   15.1882 C.2     1  UNL1        0.0182
     15 C          65.7181   91.3779   14.1584 C.2     1  UNL1        0.0455
     16 C          64.5167   90.4798   14.1567 C.2     1  UNL1        0.1752
     17 F          64.2145   89.6293   15.3548 F       1  UNL1       -0.2009
     18 C          63.6175   90.4322   12.9570 C.2     1  UNL1        0.1706
     19 C          63.9198   91.2827   11.7590 C.2     1  UNL1        0.0201
     20 C          65.1212   92.1808   11.7607 C.3     1  UNL1        0.0751
     21 C          66.0204   92.2284   12.9603 C.2     1  UNL1        0.0653
     22 N          67.2672   93.0105   13.2498 N.2     1  UNL1       -0.2536
     23 O          62.3683   84.1593   10.4666 O.3     1  UNL1       -0.4741
     24 C          63.6979   83.7667    9.8939 C.3     1  UNL1        0.2069
     25 C          64.6583   82.9573   10.7139 C.3     1  UNL1        0.0646
     26 C          64.5396   82.9414   12.2091 C.3     1  UNL1        0.0759
     27 N          63.4398   82.1611   12.8659 N.3     1  UNL1       -0.2726
     28 C          62.5264   82.6620   13.9452 C.3     1  UNL1        0.0721
     29 C          61.5823   81.5533   14.3050 C.3     1  UNL1        0.0188
     30 C          61.9121   80.3672   13.4481 C.3     1  UNL1        0.0188
     31 C          63.0600   80.7428   12.5587 C.3     1  UNL1        0.0721
@<TRIPOS>BOND
     1    12    13    1
     2    13    14    2
     3    14    15    1
     4    15    16    2
     5    16    17    1
     6    16    18    1
     7    18    11    1
     8    11     1    1
     9     1     2   ar
    10     2     3   ar
    11     3     4   ar
    12     4     5   ar
    13     5     6   ar
    14     6     7   ar
    15     7    23    1
    16    23    24    1
    17    24    25    1
    18    25    26    1
    19    26    27    1
    20    27    28    1
    21    28    29    1
    22    29    30    1
    23    30    31    1
    24     7     8   ar
    25     8     9    1
    26     8    10   ar
    27    18    19    2
    28    19    20    1
    29    20    21    1
    30    21    22    2
    31    22    13    1
    32    21    15    1
    33    10     1   ar
    34    10     5   ar
    35    31    27    1
@<TRIPOS>MOLECULE
*****
 31 35 0 0 0
SMALL
GASTEIGER

@<TRIPOS>ATOM
      1 C          61.1514   89.0362   10.8845 C.ar    1  UNL1        0.2490
      2 N          60.2886   89.8497    9.9660 N.ar    1  UNL1       -0.1863
      3 C          59.8471   89.2793    8.6508 C.ar    1  UNL1        0.2225
      4 N          60.2685   87.8955    8.2541 N.ar    1  UNL1       -0.1420
      5 N          61.1313   87.0820    9.1726 N.ar    1  UNL1       -0.2193
      6 C          61.7000   85.6992    9.0527 C.ar    1  UNL1        0.1371
      7 C          62.4930   85.4149   10.2938 C.ar    1  UNL1        0.1552
      8 C          62.4144   86.6220   11.1808 C.ar    1  UNL1        0.0359
      9 C          63.0633   86.7724   12.5247 C.3     1  UNL1        0.0360
     10 C          61.5728   87.6524   10.4878 C.ar    1  UNL1        0.1353
     11 O          61.5929   89.6065   12.1998 O.3     1  UNL1       -0.4328
     12 C          68.1432   92.8480   15.0652 C.3     1  UNL1        0.0521
     13 C          66.9653   92.3622   14.2735 C.2     1  UNL1        0.0591
     14 C          65.8686   91.4731   14.7801 C.2     1  UNL1        0.0182
     15 C          64.9029   91.2416   13.6559 C.2     1  UNL1        0.0455
     16 C          63.6330   90.4479   13.5710 C.2     1  UNL1        0.1752
     17 F          63.1331   89.7018   14.7725 F       1  UNL1       -0.2009
     18 C          62.8629   90.4002   12.2846 C.2     1  UNL1        0.1706
     19 C          63.3627   91.1463   11.0832 C.2     1  UNL1        0.0201
     20 C          64.6327   91.9401   11.1681 C.3     1  UNL1        0.0751
     21 C          65.4028   91.9877   12.4545 C.2     1  UNL1        0.0653
     22 N          66.6774   92.6802   12.8362 N.2     1  UNL1       -0.2536
     23 O          63.2344   84.1462   10.5951 O.3     1  UNL1       -0.4741
     24 C          62.6957   83.1867   11.6144 C.3     1  UNL1        0.2069
     25 C          63.6314   82.2849   12.3637 C.3     1  UNL1        0.0646
     26 C          63.6994   82.3517   13.8607 C.3     1  UNL1        0.0759
     27 N          63.9567   83.6630   14.5420 N.3     1  UNL1       -0.2726
     28 C          65.1602   84.5367   14.3469 C.3     1  UNL1        0.0721
     29 C          65.0030   85.7446   15.2223 C.3     1  UNL1        0.0188
     30 C          63.7023   85.6174   15.9584 C.3     1  UNL1        0.0188
     31 C          63.0556   84.3309   15.5380 C.3     1  UNL1        0.0721
@<TRIPOS>BOND
     1    12    13    1
     2    13    14    2
     3    14    15    1
     4    15    16    2
     5    16    17    1
     6    16    18    1
     7    18    11    1
     8    11     1    1
     9     1     2   ar
    10     2     3   ar
    11     3     4   ar
    12     4     5   ar
    13     5     6   ar
    14     6     7   ar
    15     7    23    1
    16    23    24    1
    17    24    25    1
    18    25    26    1
    19    26    27    1
    20    27    28    1
    21    28    29    1
    22    29    30    1
    23    30    31    1
    24     7     8   ar
    25     8     9    1
    26     8    10   ar
    27    18    19    2
    28    19    20    1
    29    20    21    1
    30    21    22    2
    31    22    13    1
    32    21    15    1
    33    10     1   ar
    34    10     5   ar
    35    31    27    1
@<TRIPOS>MOLECULE
*****
 31 35 0 0 0
SMALL
GASTEIGER

@<TRIPOS>ATOM
      1 C          62.5431   86.8180   11.9125 C.ar    1  UNL1        0.2490
      2 N          61.6918   86.2220   10.8308 N.ar    1  UNL1       -0.1863
      3 C          61.0709   87.1075    9.7915 C.ar    1  UNL1        0.2225
      4 N          61.3012   88.5891    9.8338 N.ar    1  UNL1       -0.1420
      5 N          62.1524   89.1851   10.9154 N.ar    1  UNL1       -0.2193
      6 C          62.5544   90.5996   11.2114 C.ar    1  UNL1        0.1371
      7 C          63.4238   90.5883   12.4337 C.ar    1  UNL1        0.1552
      8 C          63.5592   89.1668   12.8931 C.ar    1  UNL1        0.0359
      9 C          64.3427   88.6953   14.0821 C.3     1  UNL1        0.0360
     10 C          62.7734   88.2996   11.9548 C.ar    1  UNL1        0.1353
     11 O          63.1641   85.9325   12.9518 O.3     1  UNL1       -0.4328
     12 C          62.8968   78.5590   10.2717 C.3     1  UNL1        0.0521
     13 C          62.8480   79.8532   11.0283 C.2     1  UNL1        0.0591
     14 C          63.2383   81.2005   10.4968 C.2     1  UNL1        0.0182
     15 C          63.0319   82.2074   11.5893 C.2     1  UNL1        0.0455
     16 C          63.2486   83.6907   11.6412 C.2     1  UNL1        0.1752
     17 F          63.7665   84.4157   10.4345 F       1  UNL1       -0.2009
     18 C          62.9474   84.4492   12.8999 C.2     1  UNL1        0.1706
     19 C          62.4294   83.7242   14.1066 C.2     1  UNL1        0.0201
     20 C          62.2127   82.2408   14.0547 C.3     1  UNL1        0.0751
     21 C          62.5140   81.4824   12.7960 C.2     1  UNL1        0.0653
     22 N          62.4003   80.0275   12.4493 N.2     1  UNL1       -0.2536
     23 O          64.0483   91.7879   13.0827 O.3     1  UNL1       -0.4741
     24 C          65.4909   91.7532   13.4922 C.3     1  UNL1        0.2069
     25 C          66.3461   92.9748   13.3299 C.3     1  UNL1        0.0646
     26 C          66.1279   93.8937   12.1645 C.3     1  UNL1        0.0759
     27 N          66.9118   93.7008   10.9002 N.3     1  UNL1       -0.2726
     28 C          67.6280   92.4486   10.4892 C.3     1  UNL1        0.0721
     29 C          68.2760   92.7001    9.1600 C.3     1  UNL1        0.0188
     30 C          67.9604   94.1079    8.7495 C.3     1  UNL1        0.0188
     31 C          67.1173   94.7264    9.8251 C.3     1  UNL1        0.0721
@<TRIPOS>BOND
     1    12    13    1
     2    13    14    2
     3    14    15    1
     4    15    16    2
     5    16    17    1
     6    16    18    1
     7    18    11    1
     8    11     1    1
     9     1     2   ar
    10     2     3   ar
    11     3     4   ar
    12     4     5   ar
    13     5     6   ar
    14     6     7   ar
    15     7    23    1
    16    23    24    1
    17    24    25    1
    18    25    26    1
    19    26    27    1
    20    27    28    1
    21    28    29    1
    22    29    30    1
    23    30    31    1
    24     7     8   ar
    25     8     9    1
    26     8    10   ar
    27    18    19    2
    28    19    20    1
    29    20    21    1
    30    21    22    2
    31    22    13    1
    32    21    15    1
    33    10     1   ar
    34    10     5   ar
    35    31    27    1
@<TRIPOS>MOLECULE
*****
 31 35 0 0 0
SMALL
GASTEIGER

@<TRIPOS>ATOM
      1 C          61.9129   88.0484   11.5888 C.ar    1  UNL1        0.2490
      2 N          62.6859   86.8733   12.1100 N.ar    1  UNL1       -0.1863
      3 C          62.7135   85.5899   11.3341 C.ar    1  UNL1        0.2225
      4 N          61.9683   85.4816   10.0369 N.ar    1  UNL1       -0.1420
      5 N          61.1954   86.6566    9.5156 N.ar    1  UNL1       -0.2193
      6 C          60.3703   86.8457    8.2773 C.ar    1  UNL1        0.1371
      7 C          59.8326   88.2460    8.2879 C.ar    1  UNL1        0.1552
      8 C          60.3255   88.9223    9.5327 C.ar    1  UNL1        0.0359
      9 C          60.0283   90.3332    9.9463 C.3     1  UNL1        0.0360
     10 C          61.1677   87.9400   10.2915 C.ar    1  UNL1        0.1353
     11 O          61.8852   89.3318   12.3647 O.3     1  UNL1       -0.4328
     12 C          68.3929   92.8688   14.9654 C.3     1  UNL1        0.0521
     13 C          67.1965   92.3443   14.2281 C.2     1  UNL1        0.0591
     14 C          66.2004   91.3542   14.7549 C.2     1  UNL1        0.0182
     15 C          65.1745   91.1158   13.6869 C.2     1  UNL1        0.0455
     16 C          63.9574   90.2403   13.6418 C.2     1  UNL1        0.1752
     17 F          63.5953   89.3975   14.8287 F       1  UNL1       -0.2009
     18 C          63.1023   90.2074   12.4098 C.2     1  UNL1        0.1706
     19 C          63.4644   91.0501   11.2229 C.2     1  UNL1        0.0201
     20 C          64.6815   91.9257   11.2680 C.3     1  UNL1        0.0751
     21 C          65.5365   91.9585   12.5000 C.2     1  UNL1        0.0653
     22 N          66.7862   92.7178   12.8345 N.2     1  UNL1       -0.2536
     23 O          58.9561   88.8619    7.2379 O.3     1  UNL1       -0.4741
     24 C          59.5162   89.8931    6.3037 C.3     1  UNL1        0.2069
     25 C          58.6071   90.6224    5.3594 C.3     1  UNL1        0.0646
     26 C          58.9390   92.0201    4.9279 C.3     1  UNL1        0.0759
     27 N          59.9602   92.2508    3.8537 N.3     1  UNL1       -0.2726
     28 C          61.4057   91.8544    3.9115 C.3     1  UNL1        0.0721
     29 C          62.0541   92.2770    2.6265 C.3     1  UNL1        0.0188
     30 C          61.0093   92.9347    1.7746 C.3     1  UNL1        0.0188
     31 C          59.7152   92.9185    2.5330 C.3     1  UNL1        0.0721
@<TRIPOS>BOND
     1    12    13    1
     2    13    14    2
     3    14    15    1
     4    15    16    2
     5    16    17    1
     6    16    18    1
     7    18    11    1
     8    11     1    1
     9     1     2   ar
    10     2     3   ar
    11     3     4   ar
    12     4     5   ar
    13     5     6   ar
    14     6     7   ar
    15     7    23    1
    16    23    24    1
    17    24    25    1
    18    25    26    1
    19    26    27    1
    20    27    28    1
    21    28    29    1
    22    29    30    1
    23    30    31    1
    24     7     8   ar
    25     8     9    1
    26     8    10   ar
    27    18    19    2
    28    19    20    1
    29    20    21    1
    30    21    22    2
    31    22    13    1
    32    21    15    1
    33    10     1   ar
    34    10     5   ar
    35    31    27    1
@<TRIPOS>MOLECULE
*****
 31 35 0 0 0
SMALL
GASTEIGER

@<TRIPOS>ATOM
      1 C          63.0625   88.3103   12.9678 C.ar    1  UNL1        0.2490
      2 N          63.8002   87.6133   14.0723 N.ar    1  UNL1       -0.1863
      3 C          64.0476   86.1360   13.9934 C.ar    1  UNL1        0.2225
      4 N          63.5572   85.3556   12.8099 N.ar    1  UNL1       -0.1420
      5 N          62.8195   86.0526   11.7055 N.ar    1  UNL1       -0.2193
      6 C          62.2216   85.5504   10.4247 C.ar    1  UNL1        0.1371
      7 C          61.6047   86.7172    9.7122 C.ar    1  UNL1        0.1552
      8 C          61.8213   87.9407   10.5525 C.ar    1  UNL1        0.0359
      9 C          61.3669   89.3309   10.2194 C.3     1  UNL1        0.0360
     10 C          62.5721   87.5300   11.7844 C.ar    1  UNL1        0.1353
     11 O          62.8151   89.7877   13.0468 O.3     1  UNL1       -0.4328
     12 C          68.8040   93.9352   15.9715 C.3     1  UNL1        0.0521
     13 C          67.7247   93.2754   15.1655 C.2     1  UNL1        0.0591
     14 C          66.7306   92.2744   15.6753 C.2     1  UNL1        0.0182
     15 C          65.8415   91.8810   14.5330 C.2     1  UNL1        0.0455
     16 C          64.6845   90.9306   14.4429 C.2     1  UNL1        0.1752
     17 F          64.2401   90.1726   15.6586 F       1  UNL1       -0.2009
     18 C          63.9720   90.7381   13.1370 C.2     1  UNL1        0.1706
     19 C          64.4165   91.4961   11.9213 C.2     1  UNL1        0.0201
     20 C          65.5735   92.4465   12.0115 C.3     1  UNL1        0.0751
     21 C          66.2860   92.6390   13.3173 C.2     1  UNL1        0.0653
     22 N          67.4498   93.5007   13.7082 N.2     1  UNL1       -0.2536
     23 O          60.8956   86.6691    8.3912 O.3     1  UNL1       -0.4741
     24 C          59.4468   87.0475    8.3034 C.3     1  UNL1        0.2069
     25 C          58.9797   87.9829    7.2279 C.3     1  UNL1        0.0646
     26 C          59.7044   89.2748    6.9908 C.3     1  UNL1        0.0759
     27 N          59.1526   90.2771    6.0209 N.3     1  UNL1       -0.2726
     28 C          59.9556   91.1521    5.1047 C.3     1  UNL1        0.0721
     29 C          59.0002   91.9963    4.3145 C.3     1  UNL1        0.0188
     30 C          57.6066   91.6430    4.7423 C.3     1  UNL1        0.0188
     31 C          57.7007   90.5806    5.7969 C.3     1  UNL1        0.0721
@<TRIPOS>BOND
     1    12    13    1
     2    13    14    2
     3    14    15    1
     4    15    16    2
     5    16    17    1
     6    16    18    1
     7    18    11    1
     8    11     1    1
     9     1     2   ar
    10     2     3   ar
    11     3     4   ar
    12     4     5   ar
    13     5     6   ar
    14     6     7   ar
    15     7    23    1
    16    23    24    1
    17    24    25    1
    18    25    26    1
    19    26    27    1
    20    27    28    1
    21    28    29    1
    22    29    30    1
    23    30    31    1
    24     7     8   ar
    25     8     9    1
    26     8    10   ar
    27    18    19    2
    28    19    20    1
    29    20    21    1
    30    21    22    2
    31    22    13    1
    32    21    15    1
    33    10     1   ar
    34    10     5   ar
    35    31    27    1
@<TRIPOS>MOLECULE
*****
 31 35 0 0 0
SMALL
GASTEIGER

@<TRIPOS>ATOM
      1 C          62.7660   87.4437   11.9675 C.ar    1  UNL1        0.2490
      2 N          62.0363   87.0128   10.7299 N.ar    1  UNL1       -0.1863
      3 C          61.6732   88.0238    9.6829 C.ar    1  UNL1        0.2225
      4 N          62.0400   89.4657    9.8736 N.ar    1  UNL1       -0.1420
      5 N          62.7698   89.8966   11.1112 N.ar    1  UNL1       -0.2193
      6 C          63.2597   91.2373   11.5720 C.ar    1  UNL1        0.1371
      7 C          63.9255   91.0550   12.9037 C.ar    1  UNL1        0.1552
      8 C          63.8471   89.6015   13.2660 C.ar    1  UNL1        0.0359
      9 C          64.3879   88.9741   14.5165 C.3     1  UNL1        0.0360
     10 C          63.1328   88.8855   12.1582 C.ar    1  UNL1        0.1353
     11 O          63.1290   86.4326   13.0144 O.3     1  UNL1       -0.4328
     12 C          61.9499   78.7008   13.6869 C.3     1  UNL1        0.0521
     13 C          62.2767   80.1120   13.2972 C.2     1  UNL1        0.0591
     14 C          62.0646   81.3321   14.1436 C.2     1  UNL1        0.0182
     15 C          62.5298   82.5250   13.3622 C.2     1  UNL1        0.0455
     16 C          62.5630   83.9884   13.6894 C.2     1  UNL1        0.1752
     17 F          62.0633   84.4713   15.0187 F       1  UNL1       -0.2009
     18 C          63.0959   84.9692   12.6872 C.2     1  UNL1        0.1706
     19 C          63.5955   84.4863   11.3579 C.2     1  UNL1        0.0201
     20 C          63.5624   83.0228   11.0307 C.3     1  UNL1        0.0751
     21 C          63.0295   82.0421   12.0328 C.2     1  UNL1        0.0653
     22 N          62.8731   80.5508   11.9927 N.2     1  UNL1       -0.2536
     23 O          64.5586   92.1362   13.7284 O.3     1  UNL1       -0.4741
     24 C          66.0385   92.3685   13.6519 C.3     1  UNL1        0.2069
     25 C          66.5816   93.4676   12.7876 C.3     1  UNL1        0.0646
     26 C          66.6894   93.2714   11.3043 C.3     1  UNL1        0.0759
     27 N          66.9336   94.4490   10.4078 N.3     1  UNL1       -0.2726
     28 C          66.6200   95.8805   10.7277 C.3     1  UNL1        0.0721
     29 C          67.0268   96.7181    9.5516 C.3     1  UNL1        0.0188
     30 C          67.5917   95.8042    8.5049 C.3     1  UNL1        0.0188
     31 C          67.5341   94.4018    9.0341 C.3     1  UNL1        0.0721
@<TRIPOS>BOND
     1    12    13    1
     2    13    14    2
     3    14    15    1
     4    15    16    2
     5    16    17    1
     6    16    18    1
     7    18    11    1
     8    11     1    1
     9     1     2   ar
    10     2     3   ar
    11     3     4   ar
    12     4     5   ar
    13     5     6   ar
    14     6     7   ar
    15     7    23    1
    16    23    24    1
    17    24    25    1
    18    25    26    1
    19    26    27    1
    20    27    28    1
    21    28    29    1
    22    29    30    1
    23    30    31    1
    24     7     8   ar
    25     8     9    1
    26     8    10   ar
    27    18    19    2
    28    19    20    1
    29    20    21    1
    30    21    22    2
    31    22    13    1
    32    21    15    1
    33    10     1   ar
    34    10     5   ar
    35    31    27    1
@<TRIPOS>MOLECULE
*****
 31 35 0 0 0
SMALL
GASTEIGER

@<TRIPOS>ATOM
      1 C          61.8887   87.9972   11.5907 C.ar    1  UNL1        0.2490
      2 N          62.7033   86.8535   12.1183 N.ar    1  UNL1       -0.1863
      3 C          62.7867   85.5718   11.3436 C.ar    1  UNL1        0.2225
      4 N          62.0554   85.4337   10.0412 N.ar    1  UNL1       -0.1420
      5 N          61.2408   86.5773    9.5136 N.ar    1  UNL1       -0.2193
      6 C          60.4177   86.7334    8.2693 C.ar    1  UNL1        0.1371
      7 C          59.8256   88.1116    8.2750 C.ar    1  UNL1        0.1552
      8 C          60.2828   88.8073    9.5228 C.ar    1  UNL1        0.0359
      9 C          59.9277   90.2057    9.9332 C.3     1  UNL1        0.0360
     10 C          61.1574   87.8591   10.2883 C.ar    1  UNL1        0.1353
     11 O          61.8053   89.2789   12.3654 O.3     1  UNL1       -0.4328
     12 C          67.2806   94.5616   10.4320 C.3     1  UNL1        0.0521
     13 C          66.3748   93.5395   11.0525 C.2     1  UNL1        0.0591
     14 C          65.1771   92.9125   10.4028 C.2     1  UNL1        0.0182
     15 C          64.5698   91.9505   11.3803 C.2     1  UNL1        0.0455
     16 C          63.3741   91.0492   11.2907 C.2     1  UNL1        0.1752
     17 F          62.5517   91.0168   10.0367 F       1  UNL1       -0.2009
     18 C          63.0009   90.1802   12.4550 C.2     1  UNL1        0.1706
     19 C          63.8234   90.2126   13.7090 C.2     1  UNL1        0.0201
     20 C          65.0191   91.1140   13.7987 C.3     1  UNL1        0.0751
     21 C          65.3922   91.9829   12.6343 C.2     1  UNL1        0.0653
     22 N          66.5078   92.9649   12.4317 N.2     1  UNL1       -0.2536
     23 O          58.9331   88.6922    7.2184 O.3     1  UNL1       -0.4741
     24 C          59.4587   89.7449    6.2881 C.3     1  UNL1        0.2069
     25 C          58.5076   90.5542    5.4573 C.3     1  UNL1        0.0646
     26 C          58.8787   91.9442    5.0324 C.3     1  UNL1        0.0759
     27 N          59.9910   92.1558    4.0486 N.3     1  UNL1       -0.2726
     28 C          59.8989   92.9286    2.7663 C.3     1  UNL1        0.0721
     29 C          61.2417   92.8822    2.0996 C.3     1  UNL1        0.0188
     30 C          62.1639   92.0807    2.9698 C.3     1  UNL1        0.0188
     31 C          61.3909   91.6318    4.1743 C.3     1  UNL1        0.0721
@<TRIPOS>BOND
     1    12    13    1
     2    13    14    2
     3    14    15    1
     4    15    16    2
     5    16    17    1
     6    16    18    1
     7    18    11    1
     8    11     1    1
     9     1     2   ar
    10     2     3   ar
    11     3     4   ar
    12     4     5   ar
    13     5     6   ar
    14     6     7   ar
    15     7    23    1
    16    23    24    1
    17    24    25    1
    18    25    26    1
    19    26    27    1
    20    27    28    1
    21    28    29    1
    22    29    30    1
    23    30    31    1
    24     7     8   ar
    25     8     9    1
    26     8    10   ar
    27    18    19    2
    28    19    20    1
    29    20    21    1
    30    21    22    2
    31    22    13    1
    32    21    15    1
    33    10     1   ar
    34    10     5   ar
    35    31    27    1
@<TRIPOS>MOLECULE
*****
 31 35 0 0 0
SMALL
GASTEIGER

@<TRIPOS>ATOM
      1 C          62.9054   87.9820   12.7161 C.ar    1  UNL1        0.2490
      2 N          63.6720   87.2447   13.7737 N.ar    1  UNL1       -0.1863
      3 C          63.9527   85.7800   13.6129 C.ar    1  UNL1        0.2225
      4 N          63.4668   85.0527   12.3943 N.ar    1  UNL1       -0.1420
      5 N          62.7003   85.7900   11.3367 N.ar    1  UNL1       -0.2193
      6 C          62.0993   85.3429   10.0371 C.ar    1  UNL1        0.1371
      7 C          61.4471   86.5312    9.3948 C.ar    1  UNL1        0.1552
      8 C          61.6451   87.7128   10.2974 C.ar    1  UNL1        0.0359
      9 C          61.1546   89.1076   10.0443 C.3     1  UNL1        0.0360
     10 C          62.4195   87.2547   11.4976 C.ar    1  UNL1        0.1353
     11 O          62.6247   89.4467   12.8770 O.3     1  UNL1       -0.4328
     12 C          67.3066   95.0759   10.0458 C.3     1  UNL1        0.0521
     13 C          66.5883   94.0066   10.8144 C.2     1  UNL1        0.0591
     14 C          65.3635   93.2678   10.3626 C.2     1  UNL1        0.0182
     15 C          64.9869   92.2930   11.4387 C.2     1  UNL1        0.0455
     16 C          63.8688   91.2988   11.5458 C.2     1  UNL1        0.1752
     17 F          62.8768   91.1625   10.4290 F       1  UNL1       -0.2009
     18 C          63.7427   90.4409   12.7698 C.2     1  UNL1        0.1706
     19 C          64.7348   90.5772   13.8866 C.2     1  UNL1        0.0201
     20 C          65.8529   91.5714   13.7794 C.3     1  UNL1        0.0751
     21 C          65.9789   92.4292   12.5555 C.2     1  UNL1        0.0653
     22 N          66.9686   93.4883   12.1696 N.2     1  UNL1       -0.2536
     23 O          60.7240   86.5370    8.0806 O.3     1  UNL1       -0.4741
     24 C          59.2618   86.8676    8.0306 C.3     1  UNL1        0.2069
     25 C          58.8121   88.2044    7.5200 C.3     1  UNL1        0.0646
     26 C          59.7539   89.0588    6.7242 C.3     1  UNL1        0.0759
     27 N          59.2206   90.1824    5.8857 N.3     1  UNL1       -0.2726
     28 C          60.0390   91.1409    5.0723 C.3     1  UNL1        0.0721
     29 C          59.0995   92.0956    4.3972 C.3     1  UNL1        0.0188
     30 C          57.7004   91.7271    4.7932 C.3     1  UNL1        0.0188
     31 C          57.7753   90.5447    5.7131 C.3     1  UNL1        0.0721
@<TRIPOS>BOND
     1    12    13    1
     2    13    14    2
     3    14    15    1
     4    15    16    2
     5    16    17    1
     6    16    18    1
     7    18    11    1
     8    11     1    1
     9     1     2   ar
    10     2     3   ar
    11     3     4   ar
    12     4     5   ar
    13     5     6   ar
    14     6     7   ar
    15     7    23    1
    16    23    24    1
    17    24    25    1
    18    25    26    1
    19    26    27    1
    20    27    28    1
    21    28    29    1
    22    29    30    1
    23    30    31    1
    24     7     8   ar
    25     8     9    1
    26     8    10   ar
    27    18    19    2
    28    19    20    1
    29    20    21    1
    30    21    22    2
    31    22    13    1
    32    21    15    1
    33    10     1   ar
    34    10     5   ar
    35    31    27    1
@<TRIPOS>MOLECULE
*****
 31 35 0 0 0
SMALL
GASTEIGER

@<TRIPOS>ATOM
      1 C          64.0917   91.4712   13.6083 C.ar    1  UNL1        0.2490
      2 N          65.4269   92.1504   13.6842 N.ar    1  UNL1       -0.1863
      3 C          66.1404   92.5449   12.4251 C.ar    1  UNL1        0.2225
      4 N          65.5187   92.2601   11.0901 N.ar    1  UNL1       -0.1420
      5 N          64.1835   91.5808   11.0141 N.ar    1  UNL1       -0.2193
      6 C          63.3294   91.1734    9.8503 C.ar    1  UNL1        0.1371
      7 C          62.0880   90.5271   10.3901 C.ar    1  UNL1        0.1552
      8 C          62.1750   90.5351   11.8875 C.ar    1  UNL1        0.0359
      9 C          61.1473   89.9880   12.8333 C.3     1  UNL1        0.0360
     10 C          63.4700   91.1864   12.2732 C.ar    1  UNL1        0.1353
     11 O          63.3782   91.0767   14.8674 O.3     1  UNL1       -0.4328
     12 C          64.6041   83.3239   14.9872 C.3     1  UNL1        0.0521
     13 C          64.2767   84.7668   15.2341 C.2     1  UNL1        0.0591
     14 C          64.4530   85.8906   14.2564 C.2     1  UNL1        0.0182
     15 C          64.0008   87.1576   14.9200 C.2     1  UNL1        0.0455
     16 C          63.9452   88.5775   14.4398 C.2     1  UNL1        0.1752
     17 F          64.4010   88.9184   13.0520 F       1  UNL1       -0.2009
     18 C          63.4338   89.6567   15.3475 C.2     1  UNL1        0.1706
     19 C          62.9781   89.3159   16.7354 C.2     1  UNL1        0.0201
     20 C          63.0337   87.8959   17.2155 C.3     1  UNL1        0.0751
     21 C          63.5451   86.8168   16.3078 C.2     1  UNL1        0.0653
     22 N          63.7156   85.3392   16.5019 N.2     1  UNL1       -0.2536
     23 O          60.9582   89.9705    9.5755 O.3     1  UNL1       -0.4741
     24 C          60.8568   88.4917    9.3454 C.3     1  UNL1        0.2069
     25 C          61.9237   87.5764    9.8688 C.3     1  UNL1        0.0646
     26 C          61.5480   86.3811   10.6935 C.3     1  UNL1        0.0759
     27 N          62.4061   85.1511   10.6658 N.3     1  UNL1       -0.2726
     28 C          63.2293   84.6763    9.5052 C.3     1  UNL1        0.0721
     29 C          63.9237   83.4117    9.9159 C.3     1  UNL1        0.0188
     30 C          63.5297   83.1049   11.3303 C.3     1  UNL1        0.0188
     31 C          62.5918   84.1799   11.7938 C.3     1  UNL1        0.0721
@<TRIPOS>BOND
     1    12    13    1
     2    13    14    2
     3    14    15    1
     4    15    16    2
     5    16    17    1
     6    16    18    1
     7    18    11    1
     8    11     1    1
     9     1     2   ar
    10     2     3   ar
    11     3     4   ar
    12     4     5   ar
    13     5     6   ar
    14     6     7   ar
    15     7    23    1
    16    23    24    1
    17    24    25    1
    18    25    26    1
    19    26    27    1
    20    27    28    1
    21    28    29    1
    22    29    30    1
    23    30    31    1
    24     7     8   ar
    25     8     9    1
    26     8    10   ar
    27    18    19    2
    28    19    20    1
    29    20    21    1
    30    21    22    2
    31    22    13    1
    32    21    15    1
    33    10     1   ar
    34    10     5   ar
    35    31    27    1
