@<TRIPOS>MOLECULE
*****
 28 31 0 0 0
SMALL
GASTEIGER

@<TRIPOS>ATOM
      1 C          61.3308   89.1708   11.4550 C.3     1  UNL1        0.1380
      2 C          59.9394   88.6619   11.6896 C.3     1  UNL1        0.0183
      3 C          60.1752   90.1269   11.4703 C.3     1  UNL1        0.0183
      4 C          65.7530   92.1971   15.7604 C.3     1  UNL1        0.1123
      5 N          64.9288   91.6796   14.6188 N.pl3   1  UNL1       -0.3031
      6 C          63.8030   90.7233   14.8796 C.3     1  UNL1        0.1127
      7 C          62.9790   90.2058   13.7381 C.3     1  UNL1        0.1196
      8 N          63.2808   90.6446   12.3358 N.am    1  UNL1       -0.2554
      9 C          62.4567   90.1270   11.1942 C.2     1  UNL1        0.2368
     10 O          62.7585   90.5658    9.7919 O.2     1  UNL1       -0.2741
     11 C          64.4066   91.6008   12.0750 C.ar    1  UNL1        0.0672
     12 C          64.7084   92.0396   10.6727 C.ar    1  UNL1        0.0162
     13 C          65.8343   92.9958   10.4120 C.ar    1  UNL1        0.0014
     14 C          66.6584   93.5133   11.5535 C.ar    1  UNL1        0.0014
     15 C          66.3566   93.0746   12.9558 C.ar    1  UNL1        0.0158
     16 C          65.2307   92.1183   13.2165 C.ar    1  UNL1        0.0618
     17 C          62.0955   87.8825   11.5303 C.2     1  UNL1        0.2335
     18 O          63.2994   87.7757   12.4186 O.2     1  UNL1       -0.2743
     19 N          61.6562   86.7010   10.7172 N.am    1  UNL1       -0.2829
     20 H          60.8660   86.7711   10.1342 H       1  UNL1        0.1549
     21 C          62.4208   85.4127   10.7925 C.ar    1  UNL1        0.0618
     22 C          62.5103   84.6685   12.0918 C.ar    1  UNL1        0.0269
     23 C          63.2749   83.3802   12.1671 C.ar    1  UNL1        0.0590
     24 CL         63.3644   82.6360   13.4664 Cl      1  UNL1       -0.0822
     25 C          63.9501   82.8362   10.9431 C.ar    1  UNL1        0.0123
     26 C          63.8607   83.5804    9.6438 C.ar    1  UNL1        0.0135
     27 C          63.0960   84.8687    9.5685 C.ar    1  UNL1        0.0711
     28 CL         63.0065   85.6130    8.2692 Cl      1  UNL1       -0.0810
@<TRIPOS>BOND
     1     4     5    1
     2     5     6    1
     3     6     7    1
     4     7     8    1
     5     8     9   am
     6     9    10    2
     7     9     1    1
     8     1    17    1
     9    17    18    2
    10    17    19   am
    11    19    21    1
    12    21    22   ar
    13    22    23   ar
    14    23    24    1
    15    23    25   ar
    16    25    26   ar
    17    26    27   ar
    18    27    28    1
    19     1     2    1
    20     2     3    1
    21     8    11    1
    22    11    12   ar
    23    12    13   ar
    24    13    14   ar
    25    14    15   ar
    26    15    16   ar
    27    16     5    1
    28     3     1    1
    29    16    11   ar
    30    27    21   ar
    31    19    20    1
@<TRIPOS>MOLECULE
*****
 28 31 0 0 0
SMALL
GASTEIGER

@<TRIPOS>ATOM
      1 C          61.7638   89.3327   11.8564 C.3     1  UNL1        0.1380
      2 C          60.6313   89.1167   10.8969 C.3     1  UNL1        0.0183
      3 C          60.8244   90.4583   11.5394 C.3     1  UNL1        0.0183
      4 C          66.7827   93.9114   10.8092 C.3     1  UNL1        0.1123
      5 N          65.7571   92.9393   11.3125 N.pl3   1  UNL1       -0.3031
      6 C          64.8403   92.2491   10.3465 C.3     1  UNL1        0.1127
      7 C          63.8148   91.2770   10.8498 C.3     1  UNL1        0.1196
      8 N          63.7062   90.9951   12.3191 N.am    1  UNL1       -0.2554
      9 C          62.6807   90.0229   12.8224 C.2     1  UNL1        0.2368
     10 O          62.5720   89.7409   14.2916 O.2     1  UNL1       -0.2741
     11 C          64.6230   91.6852   13.2850 C.ar    1  UNL1        0.0672
     12 C          64.5144   91.4032   14.7543 C.ar    1  UNL1        0.0162
     13 C          65.4312   92.0934   15.7202 C.ar    1  UNL1        0.0014
     14 C          66.4568   93.0656   15.2169 C.ar    1  UNL1        0.0014
     15 C          66.5654   93.3475   13.7477 C.ar    1  UNL1        0.0158
     16 C          65.6485   92.6573   12.7817 C.ar    1  UNL1        0.0618
     17 C          62.3849   87.9674   11.8380 C.2     1  UNL1        0.2335
     18 O          63.5887   87.6796   12.6852 O.2     1  UNL1       -0.2743
     19 N          61.8020   86.8900   10.9723 N.am    1  UNL1       -0.2829
     20 H          61.0119   87.0789   10.4163 H       1  UNL1        0.1549
     21 C          62.4231   85.5247   10.9539 C.ar    1  UNL1        0.0618
     22 C          62.4565   84.6990   12.2057 C.ar    1  UNL1        0.0269
     23 C          63.0775   83.3338   12.1873 C.ar    1  UNL1        0.0590
     24 CL         63.1110   82.5081   13.4391 Cl      1  UNL1       -0.0822
     25 C          63.6652   82.7942   10.9169 C.ar    1  UNL1        0.0123
     26 C          63.6317   83.6199    9.6652 C.ar    1  UNL1        0.0135
     27 C          63.0107   84.9852    9.6836 C.ar    1  UNL1        0.0711
     28 CL         62.9772   85.8110    8.4317 Cl      1  UNL1       -0.0810
@<TRIPOS>BOND
     1     4     5    1
     2     5     6    1
     3     6     7    1
     4     7     8    1
     5     8     9   am
     6     9    10    2
     7     9     1    1
     8     1    17    1
     9    17    18    2
    10    17    19   am
    11    19    21    1
    12    21    22   ar
    13    22    23   ar
    14    23    24    1
    15    23    25   ar
    16    25    26   ar
    17    26    27   ar
    18    27    28    1
    19     1     2    1
    20     2     3    1
    21     8    11    1
    22    11    12   ar
    23    12    13   ar
    24    13    14   ar
    25    14    15   ar
    26    15    16   ar
    27    16     5    1
    28     3     1    1
    29    16    11   ar
    30    27    21   ar
    31    19    20    1
@<TRIPOS>MOLECULE
*****
 28 31 0 0 0
SMALL
GASTEIGER

@<TRIPOS>ATOM
      1 C          64.7163   91.2569   14.0065 C.3     1  UNL1        0.1380
      2 C          65.1371   91.9370   15.2756 C.3     1  UNL1        0.0183
      3 C          63.9728   90.9913   15.2819 C.3     1  UNL1        0.0183
      4 C          63.7028   84.4581   14.0106 C.3     1  UNL1        0.1123
      5 N          63.7632   85.9383   13.7747 N.pl3   1  UNL1       -0.3031
      6 C          64.5353   86.8165   14.7141 C.3     1  UNL1        0.1127
      7 C          64.5956   88.2966   14.4782 C.3     1  UNL1        0.1196
      8 N          63.8838   88.8985   13.3030 N.am    1  UNL1       -0.2554
      9 C          63.9442   90.3786   13.0672 C.2     1  UNL1        0.2368
     10 O          63.2324   90.9804   11.8920 O.2     1  UNL1       -0.2741
     11 C          63.1117   88.0202   12.3636 C.ar    1  UNL1        0.0672
     12 C          62.3999   88.6220   11.1884 C.ar    1  UNL1        0.0162
     13 C          61.6278   87.7438   10.2491 C.ar    1  UNL1        0.0014
     14 C          61.5674   86.2636   10.4849 C.ar    1  UNL1        0.0014
     15 C          62.2792   85.6618   11.6601 C.ar    1  UNL1        0.0158
     16 C          63.0514   86.5401   12.5995 C.ar    1  UNL1        0.0618
     17 C          65.7280   91.8275   13.0573 C.2     1  UNL1        0.2335
     18 O          67.1898   91.5735   13.2775 O.2     1  UNL1       -0.2743
     19 N          65.2778   92.6521   11.8880 N.am    1  UNL1       -0.2829
     20 H          64.3183   92.8188   11.7435 H       1  UNL1        0.1549
     21 C          66.2895   93.2227   10.9388 C.ar    1  UNL1        0.0618
     22 C          67.1682   92.3068   10.1395 C.ar    1  UNL1        0.0269
     23 C          68.1798   92.8773    9.1903 C.ar    1  UNL1        0.0590
     24 CL         69.0585   91.9614    8.3910 Cl      1  UNL1       -0.0822
     25 C          68.3128   94.3639    9.0405 C.ar    1  UNL1        0.0123
     26 C          67.4342   95.2799    9.8398 C.ar    1  UNL1        0.0135
     27 C          66.4225   94.7092   10.7890 C.ar    1  UNL1        0.0711
     28 CL         65.5438   95.6252   11.5884 Cl      1  UNL1       -0.0810
@<TRIPOS>BOND
     1     4     5    1
     2     5     6    1
     3     6     7    1
     4     7     8    1
     5     8     9   am
     6     9    10    2
     7     9     1    1
     8     1    17    1
     9    17    18    2
    10    17    19   am
    11    19    21    1
    12    21    22   ar
    13    22    23   ar
    14    23    24    1
    15    23    25   ar
    16    25    26   ar
    17    26    27   ar
    18    27    28    1
    19     1     2    1
    20     2     3    1
    21     8    11    1
    22    11    12   ar
    23    12    13   ar
    24    13    14   ar
    25    14    15   ar
    26    15    16   ar
    27    16     5    1
    28     3     1    1
    29    16    11   ar
    30    27    21   ar
    31    19    20    1
@<TRIPOS>MOLECULE
*****
 28 31 0 0 0
SMALL
GASTEIGER

@<TRIPOS>ATOM
      1 C          61.0697   89.6731   11.5800 C.3     1  UNL1        0.1380
      2 C          59.7520   89.6573   10.8636 C.3     1  UNL1        0.0183
      3 C          60.0357   90.7148   11.8888 C.3     1  UNL1        0.0183
      4 C          66.6082   93.6084   10.5368 C.3     1  UNL1        0.1123
      5 N          65.4961   92.7319   11.0318 N.pl3   1  UNL1       -0.3031
      6 C          64.4060   92.3026   10.0951 C.3     1  UNL1        0.1127
      7 C          63.2939   91.4261   10.5901 C.3     1  UNL1        0.1196
      8 N          63.2719   90.9789   12.0217 N.am    1  UNL1       -0.2554
      9 C          62.1598   90.1024   12.5167 C.2     1  UNL1        0.2368
     10 O          62.1378   89.6552   13.9483 O.2     1  UNL1       -0.2741
     11 C          64.3620   91.4083   12.9584 C.ar    1  UNL1        0.0672
     12 C          64.3400   90.9611   14.3900 C.ar    1  UNL1        0.0162
     13 C          65.4301   91.3904   15.3267 C.ar    1  UNL1        0.0014
     14 C          66.5422   92.2669   14.8317 C.ar    1  UNL1        0.0014
     15 C          66.5642   92.7141   13.4001 C.ar    1  UNL1        0.0158
     16 C          65.4741   92.2847   12.4634 C.ar    1  UNL1        0.0618
     17 C          61.7253   88.4822   10.9459 C.2     1  UNL1        0.2335
     18 O          62.3959   88.6174    9.6110 O.2     1  UNL1       -0.2743
     19 N          61.7102   87.1560   11.6467 N.am    1  UNL1       -0.2829
     20 H          61.2700   87.0673   12.5229 H       1  UNL1        0.1549
     21 C          62.3657   85.9651   11.0126 C.ar    1  UNL1        0.0618
     22 C          62.3846   85.8261    9.5192 C.ar    1  UNL1        0.0269
     23 C          63.0401   84.6352    8.8850 C.ar    1  UNL1        0.0590
     24 CL         63.0590   84.4962    7.3917 Cl      1  UNL1       -0.0822
     25 C          63.6767   83.5834    9.7444 C.ar    1  UNL1        0.0123
     26 C          63.6578   83.7224   11.2378 C.ar    1  UNL1        0.0135
     27 C          63.0023   84.9133   11.8719 C.ar    1  UNL1        0.0711
     28 CL         62.9833   85.0524   13.3654 Cl      1  UNL1       -0.0810
@<TRIPOS>BOND
     1     4     5    1
     2     5     6    1
     3     6     7    1
     4     7     8    1
     5     8     9   am
     6     9    10    2
     7     9     1    1
     8     1    17    1
     9    17    18    2
    10    17    19   am
    11    19    21    1
    12    21    22   ar
    13    22    23   ar
    14    23    24    1
    15    23    25   ar
    16    25    26   ar
    17    26    27   ar
    18    27    28    1
    19     1     2    1
    20     2     3    1
    21     8    11    1
    22    11    12   ar
    23    12    13   ar
    24    13    14   ar
    25    14    15   ar
    26    15    16   ar
    27    16     5    1
    28     3     1    1
    29    16    11   ar
    30    27    21   ar
    31    19    20    1
@<TRIPOS>MOLECULE
*****
 28 31 0 0 0
SMALL
GASTEIGER

@<TRIPOS>ATOM
      1 C          61.8265   89.3461   11.4795 C.3     1  UNL1        0.1380
      2 C          60.9067   89.2191   10.3013 C.3     1  UNL1        0.0183
      3 C          61.3820   90.5727   10.7394 C.3     1  UNL1        0.0183
      4 C          66.8171   94.0439   10.9563 C.3     1  UNL1        0.1123
      5 N          65.7870   93.0266   11.3489 N.pl3   1  UNL1       -0.3031
      6 C          64.9166   92.3979   10.3016 C.3     1  UNL1        0.1127
      7 C          63.8866   91.3806   10.6942 C.3     1  UNL1        0.1196
      8 N          63.7269   90.9922   12.1342 N.am    1  UNL1       -0.2554
      9 C          62.6968   89.9749   12.5268 C.2     1  UNL1        0.2368
     10 O          62.5372   89.5864   13.9668 O.2     1  UNL1       -0.2741
     11 C          64.5973   91.6210   13.1816 C.ar    1  UNL1        0.0672
     12 C          64.4377   91.2325   14.6216 C.ar    1  UNL1        0.0162
     13 C          65.3080   91.8613   15.6689 C.ar    1  UNL1        0.0014
     14 C          66.3381   92.8786   15.2763 C.ar    1  UNL1        0.0014
     15 C          66.4978   93.2671   13.8363 C.ar    1  UNL1        0.0158
     16 C          65.6274   92.6382   12.7889 C.ar    1  UNL1        0.0618
     17 C          61.9687   87.9010   11.8558 C.2     1  UNL1        0.2335
     18 O          60.8179   86.9587   11.6619 O.2     1  UNL1       -0.2743
     19 N          63.2618   87.3983   12.4261 N.am    1  UNL1       -0.2829
     20 H          64.0171   88.0168   12.5534 H       1  UNL1        0.1549
     21 C          63.4040   85.9532   12.8025 C.ar    1  UNL1        0.0618
     22 C          62.9682   84.8828   11.8464 C.ar    1  UNL1        0.0269
     23 C          63.1104   83.4378   12.2226 C.ar    1  UNL1        0.0590
     24 CL         62.6746   82.3674   11.2665 Cl      1  UNL1       -0.0822
     25 C          63.6885   83.0632   13.5552 C.ar    1  UNL1        0.0123
     26 C          64.1243   84.1336   14.5113 C.ar    1  UNL1        0.0135
     27 C          63.9820   85.5787   14.1350 C.ar    1  UNL1        0.0711
     28 CL         64.4178   86.6492   15.0911 Cl      1  UNL1       -0.0810
@<TRIPOS>BOND
     1     4     5    1
     2     5     6    1
     3     6     7    1
     4     7     8    1
     5     8     9   am
     6     9    10    2
     7     9     1    1
     8     1    17    1
     9    17    18    2
    10    17    19   am
    11    19    21    1
    12    21    22   ar
    13    22    23   ar
    14    23    24    1
    15    23    25   ar
    16    25    26   ar
    17    26    27   ar
    18    27    28    1
    19     1     2    1
    20     2     3    1
    21     8    11    1
    22    11    12   ar
    23    12    13   ar
    24    13    14   ar
    25    14    15   ar
    26    15    16   ar
    27    16     5    1
    28     3     1    1
    29    16    11   ar
    30    27    21   ar
    31    19    20    1
@<TRIPOS>MOLECULE
*****
 28 31 0 0 0
SMALL
GASTEIGER

@<TRIPOS>ATOM
      1 C          60.9177   89.5571   11.3254 C.3     1  UNL1        0.1380
      2 C          59.5611   89.1152   11.7885 C.3     1  UNL1        0.0183
      3 C          60.0202   90.5200   12.0446 C.3     1  UNL1        0.0183
      4 C          65.8862   91.6830   15.5733 C.3     1  UNL1        0.1123
      5 N          64.9411   91.3722   14.4507 N.pl3   1  UNL1       -0.3031
      6 C          63.7529   90.4894   14.6932 C.3     1  UNL1        0.1127
      7 C          62.8079   90.1787   13.5706 C.3     1  UNL1        0.1196
      8 N          63.0510   90.7507   12.2055 N.am    1  UNL1       -0.2554
      9 C          62.1058   90.4399   11.0829 C.2     1  UNL1        0.2368
     10 O          62.3489   91.0119    9.7177 O.2     1  UNL1       -0.2741
     11 C          64.2391   91.6335   11.9629 C.ar    1  UNL1        0.0672
     12 C          64.4822   92.2055   10.5977 C.ar    1  UNL1        0.0162
     13 C          65.6704   93.0883   10.3552 C.ar    1  UNL1        0.0014
     14 C          66.6155   93.3991   11.4778 C.ar    1  UNL1        0.0014
     15 C          66.3724   92.8271   12.8429 C.ar    1  UNL1        0.0158
     16 C          65.1842   91.9442   13.0855 C.ar    1  UNL1        0.0618
     17 C          61.4025   88.2875   10.6905 C.2     1  UNL1        0.2335
     18 O          61.2116   88.0641    9.2196 O.2     1  UNL1       -0.2743
     19 N          62.0783   87.2414   11.5265 N.am    1  UNL1       -0.2829
     20 H          62.2036   87.3880   12.4919 H       1  UNL1        0.1549
     21 C          62.5631   85.9718   10.8915 C.ar    1  UNL1        0.0618
     22 C          62.5497   85.8272    9.3986 C.ar    1  UNL1        0.0269
     23 C          63.0346   84.5577    8.7636 C.ar    1  UNL1        0.0590
     24 CL         63.0212   84.4131    7.2706 Cl      1  UNL1       -0.0822
     25 C          63.5328   83.4326    9.6216 C.ar    1  UNL1        0.0123
     26 C          63.5462   83.5772   11.1145 C.ar    1  UNL1        0.0135
     27 C          63.0614   84.8468   11.7495 C.ar    1  UNL1        0.0711
     28 CL         63.0747   84.9914   13.2425 Cl      1  UNL1       -0.0810
@<TRIPOS>BOND
     1     4     5    1
     2     5     6    1
     3     6     7    1
     4     7     8    1
     5     8     9   am
     6     9    10    2
     7     9     1    1
     8     1    17    1
     9    17    18    2
    10    17    19   am
    11    19    21    1
    12    21    22   ar
    13    22    23   ar
    14    23    24    1
    15    23    25   ar
    16    25    26   ar
    17    26    27   ar
    18    27    28    1
    19     1     2    1
    20     2     3    1
    21     8    11    1
    22    11    12   ar
    23    12    13   ar
    24    13    14   ar
    25    14    15   ar
    26    15    16   ar
    27    16     5    1
    28     3     1    1
    29    16    11   ar
    30    27    21   ar
    31    19    20    1
@<TRIPOS>MOLECULE
*****
 28 31 0 0 0
SMALL
GASTEIGER

@<TRIPOS>ATOM
      1 C          63.5670   88.2303   15.3530 C.3     1  UNL1        0.1380
      2 C          63.3431   87.8596   16.7892 C.3     1  UNL1        0.0183
      3 C          63.1601   89.2802   16.3439 C.3     1  UNL1        0.0183
      4 C          66.9374   94.0929   14.1199 C.3     1  UNL1        0.1123
      5 N          66.1183   92.8363   14.1178 N.pl3   1  UNL1       -0.3031
      6 C          66.0244   92.0001   15.3595 C.3     1  UNL1        0.1127
      7 C          65.2053   90.7435   15.3573 C.3     1  UNL1        0.1196
      8 N          64.4801   90.3231   14.1134 N.am    1  UNL1       -0.2554
      9 C          63.6609   89.0665   14.1113 C.2     1  UNL1        0.2368
     10 O          62.9357   88.6461   12.8674 O.2     1  UNL1       -0.2741
     11 C          64.5739   91.1593   12.8717 C.ar    1  UNL1        0.0672
     12 C          63.8487   90.7389   11.6278 C.ar    1  UNL1        0.0162
     13 C          63.9426   91.5751   10.3860 C.ar    1  UNL1        0.0014
     14 C          64.7618   92.8317   10.3882 C.ar    1  UNL1        0.0014
     15 C          65.4870   93.2521   11.6321 C.ar    1  UNL1        0.0158
     16 C          65.3930   92.4159   12.8739 C.ar    1  UNL1        0.0618
     17 C          63.9414   86.8899   14.7933 C.2     1  UNL1        0.2335
     18 O          65.3469   86.3849   14.9329 O.2     1  UNL1       -0.2743
     19 N          62.9103   86.0546   14.0941 N.am    1  UNL1       -0.2829
     20 H          61.9878   86.3861   14.0025 H       1  UNL1        0.1549
     21 C          63.2846   84.7142   13.5344 C.ar    1  UNL1        0.0618
     22 C          63.6546   84.5827   12.0868 C.ar    1  UNL1        0.0269
     23 C          64.0290   83.2423   11.5270 C.ar    1  UNL1        0.0590
     24 CL         64.3989   83.1108   10.0794 Cl      1  UNL1       -0.0822
     25 C          64.0334   82.0334   12.4151 C.ar    1  UNL1        0.0123
     26 C          63.6634   82.1649   13.8628 C.ar    1  UNL1        0.0135
     27 C          63.2890   83.5053   14.4225 C.ar    1  UNL1        0.0711
     28 CL         62.9190   83.6369   15.8702 Cl      1  UNL1       -0.0810
@<TRIPOS>BOND
     1     4     5    1
     2     5     6    1
     3     6     7    1
     4     7     8    1
     5     8     9   am
     6     9    10    2
     7     9     1    1
     8     1    17    1
     9    17    18    2
    10    17    19   am
    11    19    21    1
    12    21    22   ar
    13    22    23   ar
    14    23    24    1
    15    23    25   ar
    16    25    26   ar
    17    26    27   ar
    18    27    28    1
    19     1     2    1
    20     2     3    1
    21     8    11    1
    22    11    12   ar
    23    12    13   ar
    24    13    14   ar
    25    14    15   ar
    26    15    16   ar
    27    16     5    1
    28     3     1    1
    29    16    11   ar
    30    27    21   ar
    31    19    20    1
@<TRIPOS>MOLECULE
*****
 28 31 0 0 0
SMALL
GASTEIGER

@<TRIPOS>ATOM
      1 C          61.1782   88.7984   11.2364 C.3     1  UNL1        0.1380
      2 C          60.1834   89.8113   11.7209 C.3     1  UNL1        0.0183
      3 C          59.7289   88.4299   11.3531 C.3     1  UNL1        0.0183
      4 C          64.8417   83.9332   14.4236 C.3     1  UNL1        0.1123
      5 N          64.0655   84.8252   13.5006 N.pl3   1  UNL1       -0.3031
      6 C          63.5067   86.1224   14.0054 C.3     1  UNL1        0.1127
      7 C          62.7305   87.0144   13.0824 C.3     1  UNL1        0.1196
      8 N          62.5132   86.6092   11.6546 N.am    1  UNL1       -0.2554
      9 C          61.7370   87.5012   10.7316 C.2     1  UNL1        0.2368
     10 O          61.5196   87.0959    9.3038 O.2     1  UNL1       -0.2741
     11 C          63.0720   85.3119   11.1498 C.ar    1  UNL1        0.0672
     12 C          62.8546   84.9067    9.7221 C.ar    1  UNL1        0.0162
     13 C          63.4134   83.6094    9.2173 C.ar    1  UNL1        0.0014
     14 C          64.1896   82.7174   10.1403 C.ar    1  UNL1        0.0014
     15 C          64.4070   83.1226   11.5680 C.ar    1  UNL1        0.0158
     16 C          63.8481   84.4199   12.0728 C.ar    1  UNL1        0.0618
     17 C          62.4335   89.6175   11.2950 C.2     1  UNL1        0.2335
     18 O          63.2707   89.7961   10.0633 O.2     1  UNL1       -0.2743
     19 N          62.8515   90.2581   12.5853 N.am    1  UNL1       -0.2829
     20 H          62.3020   90.1409   13.3938 H       1  UNL1        0.1549
     21 C          64.1068   91.0772   12.6439 C.ar    1  UNL1        0.0618
     22 C          64.4474   92.0091   11.5190 C.ar    1  UNL1        0.0269
     23 C          65.7026   92.8282   11.5775 C.ar    1  UNL1        0.0590
     24 CL         66.0433   93.7601   10.4526 Cl      1  UNL1       -0.0822
     25 C          66.6173   92.7153   12.7611 C.ar    1  UNL1        0.0123
     26 C          66.2767   91.7834   13.8860 C.ar    1  UNL1        0.0135
     27 C          65.0214   90.9643   13.8274 C.ar    1  UNL1        0.0711
     28 CL         64.6807   90.0323   14.9524 Cl      1  UNL1       -0.0810
@<TRIPOS>BOND
     1     4     5    1
     2     5     6    1
     3     6     7    1
     4     7     8    1
     5     8     9   am
     6     9    10    2
     7     9     1    1
     8     1    17    1
     9    17    18    2
    10    17    19   am
    11    19    21    1
    12    21    22   ar
    13    22    23   ar
    14    23    24    1
    15    23    25   ar
    16    25    26   ar
    17    26    27   ar
    18    27    28    1
    19     1     2    1
    20     2     3    1
    21     8    11    1
    22    11    12   ar
    23    12    13   ar
    24    13    14   ar
    25    14    15   ar
    26    15    16   ar
    27    16     5    1
    28     3     1    1
    29    16    11   ar
    30    27    21   ar
    31    19    20    1
@<TRIPOS>MOLECULE
*****
 28 31 0 0 0
SMALL
GASTEIGER

@<TRIPOS>ATOM
      1 C          61.0385   89.4386   11.5286 C.3     1  UNL1        0.1380
      2 C          59.9319   90.4513   11.5296 C.3     1  UNL1        0.0183
      3 C          59.6090   88.9874   11.5835 C.3     1  UNL1        0.0183
      4 C          61.7565   84.6613    6.6386 C.3     1  UNL1        0.1123
      5 N          61.7504   85.5233    7.8663 N.pl3   1  UNL1       -0.3031
      6 C          61.0567   86.8530    7.8457 C.3     1  UNL1        0.1127
      7 C          61.0506   87.7148    9.0733 C.3     1  UNL1        0.1196
      8 N          61.7383   87.2469   10.3215 N.am    1  UNL1       -0.2554
      9 C          61.7322   88.1088   11.5492 C.2     1  UNL1        0.2368
     10 O          62.4200   87.6410   12.7975 O.2     1  UNL1       -0.2741
     11 C          62.4321   85.9172   10.3421 C.ar    1  UNL1        0.0672
     12 C          63.1198   85.4493   11.5904 C.ar    1  UNL1        0.0162
     13 C          63.8136   84.1196   11.6110 C.ar    1  UNL1        0.0014
     14 C          63.8197   83.2577   10.3833 C.ar    1  UNL1        0.0014
     15 C          63.1320   83.7256    9.1351 C.ar    1  UNL1        0.0158
     16 C          62.4382   85.0554    9.1145 C.ar    1  UNL1        0.0618
     17 C          62.2270   90.3515   11.4666 C.2     1  UNL1        0.2335
     18 O          62.5345   91.0976   10.2022 O.2     1  UNL1       -0.2743
     19 N          63.1081   90.5184   12.6690 N.am    1  UNL1       -0.2829
     20 H          62.9064   90.0287   13.4989 H       1  UNL1        0.1549
     21 C          64.2967   91.4314   12.6069 C.ar    1  UNL1        0.0618
     22 C          64.7019   92.0473   11.3007 C.ar    1  UNL1        0.0269
     23 C          65.8904   92.9603   11.2386 C.ar    1  UNL1        0.0590
     24 CL         66.2956   93.5763    9.9323 Cl      1  UNL1       -0.0822
     25 C          66.6738   93.2573   12.4829 C.ar    1  UNL1        0.0123
     26 C          66.2686   92.6413   13.7892 C.ar    1  UNL1        0.0135
     27 C          65.0801   91.7283   13.8512 C.ar    1  UNL1        0.0711
     28 CL         64.6748   91.1123   15.1575 Cl      1  UNL1       -0.0810
@<TRIPOS>BOND
     1     4     5    1
     2     5     6    1
     3     6     7    1
     4     7     8    1
     5     8     9   am
     6     9    10    2
     7     9     1    1
     8     1    17    1
     9    17    18    2
    10    17    19   am
    11    19    21    1
    12    21    22   ar
    13    22    23   ar
    14    23    24    1
    15    23    25   ar
    16    25    26   ar
    17    26    27   ar
    18    27    28    1
    19     1     2    1
    20     2     3    1
    21     8    11    1
    22    11    12   ar
    23    12    13   ar
    24    13    14   ar
    25    14    15   ar
    26    15    16   ar
    27    16     5    1
    28     3     1    1
    29    16    11   ar
    30    27    21   ar
    31    19    20    1
