@<TRIPOS>MOLECULE
*****
 35 38 0 0 0
SMALL
GASTEIGER

@<TRIPOS>ATOM
      1 C          64.7387   92.0875   11.0599 C.ar    1  UNL1        0.1679
      2 C          63.9087   91.3584   10.0453 C.ar    1  UNL1        0.0733
      3 C          62.9792   90.2653   10.4824 C.ar    1  UNL1        0.1391
      4 N          62.8797   89.9013   11.9342 N.ar    1  UNL1       -0.2088
      5 C          63.7097   90.6303   12.9488 C.ar    1  UNL1        0.2001
      6 N          64.6393   91.7234   12.5116 N.ar    1  UNL1       -0.2047
      7 C          66.6888   96.8536    9.8925 C.3     1  UNL1        0.0540
      8 C          66.5647   95.3713   10.0862 C.ar    1  UNL1        0.0805
      9 C          67.6330   94.3540    9.8141 C.ar    1  UNL1        0.0312
     10 C          67.0790   93.0001   10.1457 C.ar    1  UNL1        0.0637
     11 C          67.8077   91.6949   10.0220 C.3     1  UNL1        0.0522
     12 N          65.6683   93.1806   10.6228 N.ar    1  UNL1       -0.2164
     13 N          65.3505   94.6461   10.5860 N.ar    1  UNL1       -0.1684
     14 C          63.6103   90.2663   14.4005 C.ar    1  UNL1        0.1805
     15 C          63.8851   91.1785   15.5591 C.ar    1  UNL1        0.0434
     16 C          63.6632   90.4021   16.8232 C.ar    1  UNL1        0.0362
     17 C          63.2511   89.0101   16.4459 C.ar    1  UNL1        0.1234
     18 C          62.9285   87.8973   17.3986 C.3     1  UNL1        0.0725
     19 O          63.2184   88.9261   14.9486 O.2     1  UNL1       -0.4546
     20 N          62.1491   89.5362    9.4678 N.am    1  UNL1       -0.2662
     21 C          60.6527   89.5536    9.5707 C.2     1  UNL1        0.2717
     22 O          59.9864   90.3001   10.6883 O.2     1  UNL1       -0.2707
     23 H          62.5864   89.0463    8.7343 H       1  UNL1        0.1564
     24 C          59.8226   88.8246    8.5562 C.3     1  UNL1        0.2897
     25 O          59.6609   87.3362    8.6492 O.3     1  UNL1       -0.4656
     26 C          60.8360   86.4750    9.0061 C.ar    1  UNL1        0.1390
     27 C          61.7008   85.9001    7.9236 C.ar    1  UNL1        0.0369
     28 C          62.8759   85.0389    8.2805 C.ar    1  UNL1        0.0028
     29 C          63.1862   84.7525    9.7198 C.ar    1  UNL1       -0.0027
     30 C          62.3214   85.3273   10.8022 C.ar    1  UNL1       -0.0031
     31 C          61.1463   86.1885   10.4454 C.ar    1  UNL1        0.0340
     32 C          62.6317   85.0408   12.2416 C.3     1  UNL1        0.0993
     33 N          63.2261   83.7202   12.6322 N.3     1  UNL1       -0.2665
     34 C          64.5499   83.6724   13.3358 C.3     1  UNL1        0.0899
     35 C          62.4966   82.4475   12.3193 C.3     1  UNL1        0.0899
@<TRIPOS>BOND
     1     7     8    1
     2     8     9   ar
     3     9    10   ar
     4    10    11    1
     5    10    12   ar
     6    12     1    1
     7     1     2   ar
     8     2     3   ar
     9     3    20    1
    10    20    21   am
    11    21    22    2
    12    21    24    1
    13    24    25    1
    14    25    26    1
    15    26    27   ar
    16    27    28   ar
    17    28    29   ar
    18    29    30   ar
    19    30    32    1
    20    32    33    1
    21    33    34    1
    22    33    35    1
    23    30    31   ar
    24     3     4   ar
    25     4     5   ar
    26     5    14    1
    27    14    15   ar
    28    15    16   ar
    29    16    17   ar
    30    17    18    1
    31    17    19   ar
    32     5     6   ar
    33    12    13   ar
    34    13     8   ar
    35     6     1   ar
    36    31    26   ar
    37    19    14   ar
    38    20    23    1
@<TRIPOS>MOLECULE
*****
 35 38 0 0 0
SMALL
GASTEIGER

@<TRIPOS>ATOM
      1 C          62.2527   87.5420   11.5222 C.ar    1  UNL1        0.1679
      2 C          62.9340   88.6461   12.2751 C.ar    1  UNL1        0.0733
      3 C          63.7809   88.3267   13.4712 C.ar    1  UNL1        0.1391
      4 N          63.9465   86.9033   13.9144 N.ar    1  UNL1       -0.2088
      5 C          63.2653   85.7993   13.1615 C.ar    1  UNL1        0.2001
      6 N          62.4184   86.1186   11.9654 N.ar    1  UNL1       -0.2047
      7 C          58.9509   87.0499    7.4311 C.3     1  UNL1        0.0540
      8 C          59.8881   87.6351    8.4456 C.ar    1  UNL1        0.0805
      9 C          60.3169   89.0704    8.5251 C.ar    1  UNL1        0.0312
     10 C          61.2548   89.2102    9.6873 C.ar    1  UNL1        0.0637
     11 C          61.9243   90.4764   10.1326 C.3     1  UNL1        0.0522
     12 N          61.4058   87.8613   10.3260 N.ar    1  UNL1       -0.2164
     13 N          60.5611   86.8879    9.5586 N.ar    1  UNL1       -0.1684
     14 C          63.4310   84.3758   13.6047 C.ar    1  UNL1        0.1805
     15 C          64.2904   83.8996   14.7381 C.ar    1  UNL1        0.0434
     16 C          64.1569   82.4082   14.8263 C.ar    1  UNL1        0.0362
     17 C          63.2149   81.9626   13.7473 C.ar    1  UNL1        0.1234
     18 C          62.7953   80.5491   13.4716 C.3     1  UNL1        0.0725
     19 O          62.7663   83.1787   12.9923 O.2     1  UNL1       -0.4546
     20 N          64.4621   89.4308   14.2242 N.am    1  UNL1       -0.2662
     21 C          63.7400   90.1407   15.3308 C.2     1  UNL1        0.2717
     22 O          62.3365   89.7465   15.6844 O.2     1  UNL1       -0.2707
     23 H          65.3832   89.6896   13.9920 H       1  UNL1        0.1564
     24 C          64.4212   91.2448   16.0837 C.3     1  UNL1        0.2897
     25 O          64.9329   92.4486   15.3497 O.3     1  UNL1       -0.4656
     26 C          66.0131   92.2962   14.3201 C.ar    1  UNL1        0.1390
     27 C          67.3799   91.8336   14.7299 C.ar    1  UNL1        0.0369
     28 C          68.4601   91.6812   13.7004 C.ar    1  UNL1        0.0028
     29 C          68.1735   91.9914   12.2611 C.ar    1  UNL1       -0.0027
     30 C          66.8067   92.4540   11.8513 C.ar    1  UNL1       -0.0031
     31 C          65.7265   92.6064   12.8808 C.ar    1  UNL1        0.0340
     32 C          66.5202   92.7641   10.4119 C.3     1  UNL1        0.0993
     33 N          67.5968   93.3388    9.5398 N.3     1  UNL1       -0.2665
     34 C          67.6675   94.8198    9.3130 C.3     1  UNL1        0.0899
     35 C          68.6027   92.4323    8.8944 C.3     1  UNL1        0.0899
@<TRIPOS>BOND
     1     7     8    1
     2     8     9   ar
     3     9    10   ar
     4    10    11    1
     5    10    12   ar
     6    12     1    1
     7     1     2   ar
     8     2     3   ar
     9     3    20    1
    10    20    21   am
    11    21    22    2
    12    21    24    1
    13    24    25    1
    14    25    26    1
    15    26    27   ar
    16    27    28   ar
    17    28    29   ar
    18    29    30   ar
    19    30    32    1
    20    32    33    1
    21    33    34    1
    22    33    35    1
    23    30    31   ar
    24     3     4   ar
    25     4     5   ar
    26     5    14    1
    27    14    15   ar
    28    15    16   ar
    29    16    17   ar
    30    17    18    1
    31    17    19   ar
    32     5     6   ar
    33    12    13   ar
    34    13     8   ar
    35     6     1   ar
    36    31    26   ar
    37    19    14   ar
    38    20    23    1
@<TRIPOS>MOLECULE
*****
 35 38 0 0 0
SMALL
GASTEIGER

@<TRIPOS>ATOM
      1 C          62.8496   85.2222   12.3020 C.ar    1  UNL1        0.1679
      2 C          63.5510   86.0486   13.3388 C.ar    1  UNL1        0.0733
      3 C          63.4817   87.5457   13.2774 C.ar    1  UNL1        0.1391
      4 N          62.7109   88.2164   12.1792 N.ar    1  UNL1       -0.2088
      5 C          62.0095   87.3900   11.1424 C.ar    1  UNL1        0.2001
      6 N          62.0788   85.8929   11.2038 N.ar    1  UNL1       -0.2047
      7 C          62.2954   80.2321   13.9370 C.3     1  UNL1        0.0540
      8 C          62.6642   81.4314   13.1149 C.ar    1  UNL1        0.0805
      9 C          63.3871   81.4110   11.8007 C.ar    1  UNL1        0.0312
     10 C          63.5445   82.8285   11.3363 C.ar    1  UNL1        0.0637
     11 C          64.2106   83.2718   10.0675 C.3     1  UNL1        0.0522
     12 N          62.9189   83.7250   12.3634 N.ar    1  UNL1       -0.2164
     13 N          62.3749   82.8615   13.4626 N.ar    1  UNL1       -0.1684
     14 C          61.2387   88.0607   10.0442 C.ar    1  UNL1        0.1805
     15 C          61.1080   89.5403    9.8352 C.ar    1  UNL1        0.0434
     16 C          60.2518   89.7636    8.6240 C.ar    1  UNL1        0.0362
     17 C          59.8533   88.4220    8.0844 C.ar    1  UNL1        0.1234
     18 C          58.9955   88.1760    6.8787 C.3     1  UNL1        0.0725
     19 O          60.4632   87.3696    8.9621 O.2     1  UNL1       -0.4546
     20 N          64.1832   88.3722   14.3142 N.am    1  UNL1       -0.2662
     21 C          63.4825   89.5406   14.9420 C.2     1  UNL1        0.2717
     22 O          62.0804   89.8824   14.5329 O.2     1  UNL1       -0.2707
     23 H          65.1034   88.1478   14.5827 H       1  UNL1        0.1564
     24 C          64.1839   90.3670   15.9787 C.3     1  UNL1        0.2897
     25 O          64.6899   91.7355   15.6306 O.3     1  UNL1       -0.4656
     26 C          65.8169   91.8922   14.6531 C.ar    1  UNL1        0.1390
     27 C          67.2327   91.6787   15.1003 C.ar    1  UNL1        0.0369
     28 C          68.3596   91.8353   14.1228 C.ar    1  UNL1        0.0028
     29 C          68.0708   92.2055   12.6982 C.ar    1  UNL1       -0.0027
     30 C          66.6550   92.4190   12.2511 C.ar    1  UNL1       -0.0031
     31 C          65.5281   92.2623   13.2285 C.ar    1  UNL1        0.0340
     32 C          66.3662   92.7891   10.8264 C.3     1  UNL1        0.0993
     33 N          67.0536   93.9680   10.2037 N.3     1  UNL1       -0.2665
     34 C          68.0789   93.7569    9.1294 C.3     1  UNL1        0.0899
     35 C          66.7155   95.3579   10.6552 C.3     1  UNL1        0.0899
@<TRIPOS>BOND
     1     7     8    1
     2     8     9   ar
     3     9    10   ar
     4    10    11    1
     5    10    12   ar
     6    12     1    1
     7     1     2   ar
     8     2     3   ar
     9     3    20    1
    10    20    21   am
    11    21    22    2
    12    21    24    1
    13    24    25    1
    14    25    26    1
    15    26    27   ar
    16    27    28   ar
    17    28    29   ar
    18    29    30   ar
    19    30    32    1
    20    32    33    1
    21    33    34    1
    22    33    35    1
    23    30    31   ar
    24     3     4   ar
    25     4     5   ar
    26     5    14    1
    27    14    15   ar
    28    15    16   ar
    29    16    17   ar
    30    17    18    1
    31    17    19   ar
    32     5     6   ar
    33    12    13   ar
    34    13     8   ar
    35     6     1   ar
    36    31    26   ar
    37    19    14   ar
    38    20    23    1
@<TRIPOS>MOLECULE
*****
 35 38 0 0 0
SMALL
GASTEIGER

@<TRIPOS>ATOM
      1 C          64.4082   91.3489   12.2685 C.ar    1  UNL1        0.1679
      2 C          64.5934   90.5838   13.5454 C.ar    1  UNL1        0.0733
      3 C          63.8361   89.3092   13.7725 C.ar    1  UNL1        0.1391
      4 N          62.8935   88.7996   12.7228 N.ar    1  UNL1       -0.2088
      5 C          62.7082   89.5646   11.4460 C.ar    1  UNL1        0.2001
      6 N          63.4656   90.8393   11.2189 N.ar    1  UNL1       -0.2047
      7 C          66.4149   95.6555    9.9648 C.3     1  UNL1        0.0540
      8 C          66.0879   94.6031   10.9825 C.ar    1  UNL1        0.0805
      9 C          66.5740   94.5672   12.4011 C.ar    1  UNL1        0.0312
     10 C          66.0039   93.3438   13.0555 C.ar    1  UNL1        0.0637
     11 C          66.2322   92.9157   14.4749 C.3     1  UNL1        0.0522
     12 N          65.1655   92.6236   12.0413 N.ar    1  UNL1       -0.2164
     13 N          65.2174   93.4020   10.7601 N.ar    1  UNL1       -0.1684
     14 C          61.7656   89.0550   10.3963 C.ar    1  UNL1        0.1805
     15 C          60.7430   89.8685    9.6597 C.ar    1  UNL1        0.0434
     16 C          60.0255   88.9587    8.7071 C.ar    1  UNL1        0.0362
     17 C          60.6046   87.5829    8.8549 C.ar    1  UNL1        0.1234
     18 C          60.1825   86.3620    8.0927 C.3     1  UNL1        0.0725
     19 O          61.6801   87.6425    9.8989 O.2     1  UNL1       -0.4546
     20 N          64.0213   88.5440   15.0494 N.am    1  UNL1       -0.2662
     21 C          62.9763   88.6128   16.1232 C.2     1  UNL1        0.2717
     22 O          61.7460   89.4466   15.9202 O.2     1  UNL1       -0.2707
     23 H          64.8288   87.9967   15.1826 H       1  UNL1        0.1564
     24 C          63.1615   87.8477   17.4000 C.3     1  UNL1        0.2897
     25 O          62.8319   86.3853   17.4527 O.3     1  UNL1       -0.4656
     26 C          63.2702   85.4773   16.3420 C.ar    1  UNL1        0.1390
     27 C          64.6116   85.6716   15.6995 C.ar    1  UNL1        0.0369
     28 C          65.0499   84.7636   14.5889 C.ar    1  UNL1        0.0028
     29 C          64.1467   83.6614   14.1208 C.ar    1  UNL1       -0.0027
     30 C          62.8053   83.4670   14.7633 C.ar    1  UNL1       -0.0031
     31 C          62.3670   84.3750   15.8739 C.ar    1  UNL1        0.0340
     32 C          61.9021   82.3646   14.2951 C.3     1  UNL1        0.0993
     33 N          62.3104   81.5007   13.1389 N.3     1  UNL1       -0.2665
     34 C          62.3832   80.0116   13.3043 C.3     1  UNL1        0.0899
     35 C          62.6458   82.1257   11.8172 C.3     1  UNL1        0.0899
@<TRIPOS>BOND
     1     7     8    1
     2     8     9   ar
     3     9    10   ar
     4    10    11    1
     5    10    12   ar
     6    12     1    1
     7     1     2   ar
     8     2     3   ar
     9     3    20    1
    10    20    21   am
    11    21    22    2
    12    21    24    1
    13    24    25    1
    14    25    26    1
    15    26    27   ar
    16    27    28   ar
    17    28    29   ar
    18    29    30   ar
    19    30    32    1
    20    32    33    1
    21    33    34    1
    22    33    35    1
    23    30    31   ar
    24     3     4   ar
    25     4     5   ar
    26     5    14    1
    27    14    15   ar
    28    15    16   ar
    29    16    17   ar
    30    17    18    1
    31    17    19   ar
    32     5     6   ar
    33    12    13   ar
    34    13     8   ar
    35     6     1   ar
    36    31    26   ar
    37    19    14   ar
    38    20    23    1
@<TRIPOS>MOLECULE
*****
 35 38 0 0 0
SMALL
GASTEIGER

@<TRIPOS>ATOM
      1 C          62.7658   85.7960   12.2403 C.ar    1  UNL1        0.1679
      2 C          63.3910   86.9770   12.9216 C.ar    1  UNL1        0.0733
      3 C          63.1379   88.3619   12.4043 C.ar    1  UNL1        0.1391
      4 N          62.2595   88.5659   11.2056 N.ar    1  UNL1       -0.2088
      5 C          61.6343   87.3850   10.5242 C.ar    1  UNL1        0.2001
      6 N          61.8874   86.0000   11.0416 N.ar    1  UNL1       -0.2047
      7 C          62.7809   80.5370   12.7141 C.3     1  UNL1        0.0540
      8 C          63.0258   81.9936   12.9754 C.ar    1  UNL1        0.0805
      9 C          63.7910   82.5655   14.1320 C.ar    1  UNL1        0.0312
     10 C          63.7867   84.0594   13.9973 C.ar    1  UNL1        0.0637
     11 C          64.4361   85.0312   14.9374 C.3     1  UNL1        0.0522
     12 N          63.0189   84.4109   12.7576 N.ar    1  UNL1       -0.2164
     13 N          62.5487   83.1342   12.1260 N.ar    1  UNL1       -0.1684
     14 C          60.7559   87.5890    9.3256 C.ar    1  UNL1        0.1805
     15 C          59.9534   86.5296    8.6300 C.ar    1  UNL1        0.0434
     16 C          59.2273   87.1741    7.4865 C.ar    1  UNL1        0.0362
     17 C          59.5810   88.6317    7.4754 C.ar    1  UNL1        0.1234
     18 C          59.0783   89.6536    6.4991 C.3     1  UNL1        0.0725
     19 O          60.5257   88.8881    8.6120 O.2     1  UNL1       -0.4546
     20 N          63.7631   89.5430   13.0856 N.am    1  UNL1       -0.2662
     21 C          63.8545   89.5838   14.5823 C.2     1  UNL1        0.2717
     22 O          63.3206   88.4434   15.3976 O.2     1  UNL1       -0.2707
     23 H          64.1135   90.2914   12.5505 H       1  UNL1        0.1564
     24 C          64.4797   90.7648   15.2637 C.3     1  UNL1        0.2897
     25 O          64.6975   92.0400   14.5045 O.3     1  UNL1       -0.4656
     26 C          65.8274   92.1452   13.5235 C.ar    1  UNL1        0.1390
     27 C          67.1839   91.6147   13.8821 C.ar    1  UNL1        0.0369
     28 C          68.3137   91.7199   12.9012 C.ar    1  UNL1        0.0028
     29 C          68.0871   92.3556   11.5616 C.ar    1  UNL1       -0.0027
     30 C          66.7307   92.8861   11.2030 C.ar    1  UNL1       -0.0031
     31 C          65.6008   92.7809   12.1839 C.ar    1  UNL1        0.0340
     32 C          66.5041   93.5218    9.8633 C.3     1  UNL1        0.0993
     33 N          66.8305   94.9710    9.6560 N.3     1  UNL1       -0.2665
     34 C          66.5250   95.9700   10.7324 C.3     1  UNL1        0.0899
     35 C          67.4626   95.4214    8.3724 C.3     1  UNL1        0.0899
@<TRIPOS>BOND
     1     7     8    1
     2     8     9   ar
     3     9    10   ar
     4    10    11    1
     5    10    12   ar
     6    12     1    1
     7     1     2   ar
     8     2     3   ar
     9     3    20    1
    10    20    21   am
    11    21    22    2
    12    21    24    1
    13    24    25    1
    14    25    26    1
    15    26    27   ar
    16    27    28   ar
    17    28    29   ar
    18    29    30   ar
    19    30    32    1
    20    32    33    1
    21    33    34    1
    22    33    35    1
    23    30    31   ar
    24     3     4   ar
    25     4     5   ar
    26     5    14    1
    27    14    15   ar
    28    15    16   ar
    29    16    17   ar
    30    17    18    1
    31    17    19   ar
    32     5     6   ar
    33    12    13   ar
    34    13     8   ar
    35     6     1   ar
    36    31    26   ar
    37    19    14   ar
    38    20    23    1
@<TRIPOS>MOLECULE
*****
 35 38 0 0 0
SMALL
GASTEIGER

@<TRIPOS>ATOM
      1 C          64.9804   90.2649   14.1686 C.ar    1  UNL1        0.1679
      2 C          64.0409   90.7233   13.0929 C.ar    1  UNL1        0.0733
      3 C          63.1195   89.7406   12.4332 C.ar    1  UNL1        0.1391
      4 N          63.1377   88.2995   12.8491 N.ar    1  UNL1       -0.2088
      5 C          64.0773   87.8411   13.9247 C.ar    1  UNL1        0.2001
      6 N          64.9986   88.8238   14.5845 N.ar    1  UNL1       -0.2047
      7 C          69.2541   93.1357   15.3416 C.3     1  UNL1        0.0540
      8 C          67.8662   92.5672   15.3676 C.ar    1  UNL1        0.0805
      9 C          66.7732   92.9526   16.3199 C.ar    1  UNL1        0.0312
     10 C          65.5592   92.1370   15.9867 C.ar    1  UNL1        0.0637
     11 C          64.2350   92.1999   16.6884 C.3     1  UNL1        0.0522
     12 N          65.9019   91.2476   14.8284 N.ar    1  UNL1       -0.2164
     13 N          67.3277   91.5135   14.4458 N.ar    1  UNL1       -0.1684
     14 C          64.0955   86.4000   14.3406 C.ar    1  UNL1        0.1805
     15 C          65.2910   85.6394   14.8326 C.ar    1  UNL1        0.0434
     16 C          64.8558   84.2358   15.1336 C.ar    1  UNL1        0.0362
     17 C          63.3912   84.1290   14.8277 C.ar    1  UNL1        0.1234
     18 C          62.5450   82.9004   14.9843 C.3     1  UNL1        0.0725
     19 O          62.9213   85.4666   14.3376 O.2     1  UNL1       -0.4546
     20 N          62.1799   90.1989   11.3575 N.am    1  UNL1       -0.2662
     21 C          60.7022   89.9957   11.5158 C.2     1  UNL1        0.2717
     22 O          60.1641   89.3342   12.7499 O.2     1  UNL1       -0.2707
     23 H          62.5330   90.6331   10.5475 H       1  UNL1        0.1564
     24 C          59.7625   90.4540   10.4402 C.3     1  UNL1        0.2897
     25 O          60.0234   90.0860    9.0097 O.3     1  UNL1       -0.4656
     26 C          60.1452   88.6435    8.6166 C.ar    1  UNL1        0.1390
     27 C          59.0003   87.9517    7.9379 C.ar    1  UNL1        0.0369
     28 C          59.1221   86.5093    7.5449 C.ar    1  UNL1        0.0028
     29 C          60.3889   85.7586    7.8305 C.ar    1  UNL1       -0.0027
     30 C          61.5339   86.4503    8.5092 C.ar    1  UNL1       -0.0031
     31 C          61.4120   87.8928    8.9022 C.ar    1  UNL1        0.0340
     32 C          62.8007   85.6995    8.7948 C.3     1  UNL1        0.0993
     33 N          62.8890   84.8076    9.9975 N.3     1  UNL1       -0.2665
     34 C          63.7631   83.5891    9.9649 C.3     1  UNL1        0.0899
     35 C          62.1032   85.1342   11.2327 C.3     1  UNL1        0.0899
@<TRIPOS>BOND
     1     7     8    1
     2     8     9   ar
     3     9    10   ar
     4    10    11    1
     5    10    12   ar
     6    12     1    1
     7     1     2   ar
     8     2     3   ar
     9     3    20    1
    10    20    21   am
    11    21    22    2
    12    21    24    1
    13    24    25    1
    14    25    26    1
    15    26    27   ar
    16    27    28   ar
    17    28    29   ar
    18    29    30   ar
    19    30    32    1
    20    32    33    1
    21    33    34    1
    22    33    35    1
    23    30    31   ar
    24     3     4   ar
    25     4     5   ar
    26     5    14    1
    27    14    15   ar
    28    15    16   ar
    29    16    17   ar
    30    17    18    1
    31    17    19   ar
    32     5     6   ar
    33    12    13   ar
    34    13     8   ar
    35     6     1   ar
    36    31    26   ar
    37    19    14   ar
    38    20    23    1
@<TRIPOS>MOLECULE
*****
 35 38 0 0 0
SMALL
GASTEIGER

@<TRIPOS>ATOM
      1 C          62.7358   89.4668   11.2651 C.ar    1  UNL1        0.1679
      2 C          62.9343   88.7417   12.5631 C.ar    1  UNL1        0.0733
      3 C          63.8453   89.3123   13.6092 C.ar    1  UNL1        0.1391
      4 N          64.5578   90.6081   13.3573 N.ar    1  UNL1       -0.2088
      5 C          64.3593   91.3332   12.0593 C.ar    1  UNL1        0.2001
      6 N          63.4483   90.7625   11.0132 N.ar    1  UNL1       -0.2047
      7 C          59.2619   89.0652    7.3088 C.3     1  UNL1        0.0540
      8 C          60.2280   88.7116    8.4004 C.ar    1  UNL1        0.0805
      9 C          60.6178   87.3244    8.8176 C.ar    1  UNL1        0.0312
     10 C          61.6046   87.4385    9.9415 C.ar    1  UNL1        0.0637
     11 C          62.2568   86.2957   10.6616 C.3     1  UNL1        0.0522
     12 N          61.8248   88.8962   10.2189 N.ar    1  UNL1       -0.2164
     13 N          60.9740   89.6829    9.2664 N.ar    1  UNL1       -0.1684
     14 C          65.0718   92.6289   11.8075 C.ar    1  UNL1        0.1805
     15 C          65.8992   93.3880   12.8021 C.ar    1  UNL1        0.0434
     16 C          66.4208   94.6213   12.1261 C.ar    1  UNL1        0.0362
     17 C          65.9157   94.6244   10.7137 C.ar    1  UNL1        0.1234
     18 C          66.1952   95.6746    9.6797 C.3     1  UNL1        0.0725
     19 O          65.0820   93.3931   10.5168 O.2     1  UNL1       -0.4546
     20 N          64.0439   88.5873   14.9072 N.am    1  UNL1       -0.2662
     21 C          63.0151   88.6981   15.9932 C.2     1  UNL1        0.2717
     22 O          61.7878   89.5341   15.7811 O.2     1  UNL1       -0.2707
     23 H          64.8494   88.0386   15.0464 H       1  UNL1        0.1564
     24 C          63.2136   87.9731   17.2912 C.3     1  UNL1        0.2897
     25 O          62.8762   86.5153   17.3952 O.3     1  UNL1       -0.4656
     26 C          63.3126   85.5658   16.3190 C.ar    1  UNL1        0.1390
     27 C          64.6516   85.7376   15.6651 C.ar    1  UNL1        0.0369
     28 C          65.0881   84.7883   14.5889 C.ar    1  UNL1        0.0028
     29 C          64.1856   83.6670   14.1668 C.ar    1  UNL1       -0.0027
     30 C          62.8466   83.4952   14.8207 C.ar    1  UNL1       -0.0031
     31 C          62.4102   84.4446   15.8968 C.ar    1  UNL1        0.0340
     32 C          61.9441   82.3738   14.3985 C.3     1  UNL1        0.0993
     33 N          62.3009   81.5308   13.2102 N.3     1  UNL1       -0.2665
     34 C          62.3708   80.0384   13.3433 C.3     1  UNL1        0.0899
     35 C          62.5878   82.1803   11.8888 C.3     1  UNL1        0.0899
@<TRIPOS>BOND
     1     7     8    1
     2     8     9   ar
     3     9    10   ar
     4    10    11    1
     5    10    12   ar
     6    12     1    1
     7     1     2   ar
     8     2     3   ar
     9     3    20    1
    10    20    21   am
    11    21    22    2
    12    21    24    1
    13    24    25    1
    14    25    26    1
    15    26    27   ar
    16    27    28   ar
    17    28    29   ar
    18    29    30   ar
    19    30    32    1
    20    32    33    1
    21    33    34    1
    22    33    35    1
    23    30    31   ar
    24     3     4   ar
    25     4     5   ar
    26     5    14    1
    27    14    15   ar
    28    15    16   ar
    29    16    17   ar
    30    17    18    1
    31    17    19   ar
    32     5     6   ar
    33    12    13   ar
    34    13     8   ar
    35     6     1   ar
    36    31    26   ar
    37    19    14   ar
    38    20    23    1
@<TRIPOS>MOLECULE
*****
 35 38 0 0 0
SMALL
GASTEIGER

@<TRIPOS>ATOM
      1 C          62.8202   88.4250   12.2093 C.ar    1  UNL1        0.1679
      2 C          63.1831   87.0265   12.6123 C.ar    1  UNL1        0.0733
      3 C          64.0680   86.7943   13.8009 C.ar    1  UNL1        0.1391
      4 N          64.5901   87.9606   14.5866 N.ar    1  UNL1       -0.2088
      5 C          64.2272   89.3591   14.1836 C.ar    1  UNL1        0.2001
      6 N          63.3422   89.5913   12.9949 N.ar    1  UNL1       -0.2047
      7 C          59.1101   87.7791    8.5080 C.3     1  UNL1        0.0540
      8 C          60.2299   88.3604    9.3194 C.ar    1  UNL1        0.0805
      9 C          60.9169   89.6691    9.0636 C.ar    1  UNL1        0.0312
     10 C          61.9708   89.8526   10.1150 C.ar    1  UNL1        0.0637
     11 C          62.8977   91.0254   10.2391 C.3     1  UNL1        0.0522
     12 N          61.9352   88.6573   11.0206 N.ar    1  UNL1       -0.2164
     13 N          60.8592   87.7351   10.5289 N.ar    1  UNL1       -0.1684
     14 C          64.7492   90.5254   14.9692 C.ar    1  UNL1        0.1805
     15 C          64.0404   91.2183   16.0950 C.ar    1  UNL1        0.0434
     16 C          64.9248   92.3247   16.5886 C.ar    1  UNL1        0.0362
     17 C          66.1803   92.3156   15.7678 C.ar    1  UNL1        0.1234
     18 C          67.3407   93.2538   15.9210 C.3     1  UNL1        0.0725
     19 O          66.0718   91.2036   14.7670 O.2     1  UNL1       -0.4546
     20 N          64.4310   85.3958   14.2040 N.am    1  UNL1       -0.2662
     21 C          63.4713   84.5758   15.0144 C.2     1  UNL1        0.2717
     22 O          62.1486   85.1545   15.4216 O.2     1  UNL1       -0.2707
     23 H          65.2991   85.0160   13.9367 H       1  UNL1        0.1564
     24 C          63.8341   83.1774   15.4174 C.3     1  UNL1        0.2897
     25 O          63.0458   82.0159   14.8886 O.3     1  UNL1       -0.4656
     26 C          63.1031   81.6728   13.4294 C.ar    1  UNL1        0.1390
     27 C          62.7213   80.2980   12.9667 C.ar    1  UNL1        0.0369
     28 C          62.7785   79.9549   11.5076 C.ar    1  UNL1        0.0028
     29 C          63.2175   80.9866   10.5113 C.ar    1  UNL1       -0.0027
     30 C          63.5994   82.3614   10.9740 C.ar    1  UNL1       -0.0031
     31 C          63.5421   82.7045   12.4331 C.ar    1  UNL1        0.0340
     32 C          64.0384   83.3931    9.9775 C.3     1  UNL1        0.0993
     33 N          63.0941   84.4806    9.5583 N.3     1  UNL1       -0.2665
     34 C          63.1994   85.0775    8.1863 C.3     1  UNL1        0.0899
     35 C          62.0446   84.9710   10.5112 C.3     1  UNL1        0.0899
@<TRIPOS>BOND
     1     7     8    1
     2     8     9   ar
     3     9    10   ar
     4    10    11    1
     5    10    12   ar
     6    12     1    1
     7     1     2   ar
     8     2     3   ar
     9     3    20    1
    10    20    21   am
    11    21    22    2
    12    21    24    1
    13    24    25    1
    14    25    26    1
    15    26    27   ar
    16    27    28   ar
    17    28    29   ar
    18    29    30   ar
    19    30    32    1
    20    32    33    1
    21    33    34    1
    22    33    35    1
    23    30    31   ar
    24     3     4   ar
    25     4     5   ar
    26     5    14    1
    27    14    15   ar
    28    15    16   ar
    29    16    17   ar
    30    17    18    1
    31    17    19   ar
    32     5     6   ar
    33    12    13   ar
    34    13     8   ar
    35     6     1   ar
    36    31    26   ar
    37    19    14   ar
    38    20    23    1
@<TRIPOS>MOLECULE
*****
 35 38 0 0 0
SMALL
GASTEIGER

@<TRIPOS>ATOM
      1 C          63.5095   89.4641   12.7321 C.ar    1  UNL1        0.1679
      2 C          62.7505   90.0063   11.5575 C.ar    1  UNL1        0.0733
      3 C          62.0133   89.0718   10.6447 C.ar    1  UNL1        0.1391
      4 N          62.0352   87.5950   10.9066 N.ar    1  UNL1       -0.2088
      5 C          62.7942   87.0527   12.0812 C.ar    1  UNL1        0.2001
      6 N          63.5313   87.9873   12.9940 N.ar    1  UNL1       -0.2047
      7 C          66.7532   93.2349   14.5043 C.3     1  UNL1        0.0540
      8 C          65.7376   92.1319   14.4595 C.ar    1  UNL1        0.0805
      9 C          65.0245   91.5416   15.6398 C.ar    1  UNL1        0.0312
     10 C          64.1030   90.4704   15.1363 C.ar    1  UNL1        0.0637
     11 C          63.1970   89.6202   15.9767 C.3     1  UNL1        0.0522
     12 N          64.2467   90.3986   13.6449 N.ar    1  UNL1       -0.2164
     13 N          65.2569   91.4255   13.2267 N.ar    1  UNL1       -0.1684
     14 C          62.8161   85.5759   12.3431 C.ar    1  UNL1        0.1805
     15 C          63.0356   84.5020   11.3191 C.ar    1  UNL1        0.0434
     16 C          62.9775   83.1761   12.0181 C.ar    1  UNL1        0.0362
     17 C          62.7219   83.4305   13.4741 C.ar    1  UNL1        0.1234
     18 C          62.5894   82.3853   14.5418 C.3     1  UNL1        0.0725
     19 O          62.6222   84.9137   13.6750 O.2     1  UNL1       -0.4546
     20 N          61.2542   89.6140    9.4700 N.am    1  UNL1       -0.2662
     21 C          60.1149   88.8315    8.8874 C.2     1  UNL1        0.2717
     22 O          59.7346   87.5067    9.4794 O.2     1  UNL1       -0.2707
     23 H          61.5039   90.4835    9.0814 H       1  UNL1        0.1564
     24 C          59.3558   89.3736    7.7127 C.3     1  UNL1        0.2897
     25 O          59.9352   89.2705    6.3330 O.3     1  UNL1       -0.4656
     26 C          59.8520   90.4384    5.3953 C.ar    1  UNL1        0.1390
     27 C          58.5705   91.2074    5.2670 C.ar    1  UNL1        0.0369
     28 C          58.4872   92.3752    4.3295 C.ar    1  UNL1        0.0028
     29 C          59.6855   92.7741    3.5202 C.ar    1  UNL1       -0.0027
     30 C          60.9670   92.0052    3.6485 C.ar    1  UNL1       -0.0031
     31 C          61.0502   90.8373    4.5860 C.ar    1  UNL1        0.0340
     32 C          62.1653   92.4042    2.8391 C.3     1  UNL1        0.0993
     33 N          61.9833   93.0971    1.5213 N.3     1  UNL1       -0.2665
     34 C          61.2942   92.3911    0.3915 C.3     1  UNL1        0.0899
     35 C          62.4906   94.4962    1.3333 C.3     1  UNL1        0.0899
@<TRIPOS>BOND
     1     7     8    1
     2     8     9   ar
     3     9    10   ar
     4    10    11    1
     5    10    12   ar
     6    12     1    1
     7     1     2   ar
     8     2     3   ar
     9     3    20    1
    10    20    21   am
    11    21    22    2
    12    21    24    1
    13    24    25    1
    14    25    26    1
    15    26    27   ar
    16    27    28   ar
    17    28    29   ar
    18    29    30   ar
    19    30    32    1
    20    32    33    1
    21    33    34    1
    22    33    35    1
    23    30    31   ar
    24     3     4   ar
    25     4     5   ar
    26     5    14    1
    27    14    15   ar
    28    15    16   ar
    29    16    17   ar
    30    17    18    1
    31    17    19   ar
    32     5     6   ar
    33    12    13   ar
    34    13     8   ar
    35     6     1   ar
    36    31    26   ar
    37    19    14   ar
    38    20    23    1
