@<TRIPOS>MOLECULE
*****
 23 23 0 0 0
SMALL
GASTEIGER

@<TRIPOS>ATOM
      1 N          62.0894   85.3607   16.0532 N.am    1  UNL1       -0.1579
      2 C          62.7566   85.0090   14.7566 C.2     1  UNL1        0.3686
      3 O          64.0402   85.6805   14.3673 O.2     1  UNL1       -0.2332
      4 N          62.1402   83.9858   13.8493 N.am    1  UNL1       -0.2556
      5 H          61.2469   84.9200   16.3087 H       1  UNL1        0.2558
      6 H          61.2978   83.5451   14.1049 H       1  UNL1        0.1578
      7 C          62.8074   83.6340   12.5528 C.ar    1  UNL1        0.0448
      8 C          62.7190   84.5716   11.3853 C.ar    1  UNL1       -0.0089
      9 C          63.3862   84.2198   10.0887 C.ar    1  UNL1       -0.0031
     10 C          64.1418   82.9305    9.9596 C.ar    1  UNL1       -0.0006
     11 C          64.2302   81.9929   11.1271 C.ar    1  UNL1       -0.0031
     12 C          63.5630   82.3447   12.4237 C.ar    1  UNL1       -0.0089
     13 C          61.9634   85.8610   11.5143 C.3     1  UNL1        0.0276
     14 C          61.1363   86.3634   10.3683 C.3     1  UNL1        0.0051
     15 C          63.6515   81.4071   13.5913 C.3     1  UNL1        0.0276
     16 C          62.6244   80.3279   13.7660 C.3     1  UNL1        0.0051
     17 C          62.7058   86.3840   16.9604 C.2     1  UNL1        0.3790
     18 N          62.5159   86.2818   18.4448 N.pl3   1  UNL1       -0.1311
     19 H          62.9204   86.9534   19.0402 H       1  UNL1        0.3060
     20 N          63.5122   87.5094   16.3832 N.pl3   1  UNL1       -0.2637
     21 H          64.2809   87.3154   15.7996 H       1  UNL1        0.2586
     22 C          63.4929   90.0233   15.7276 C.3     1  UNL1        0.0464
     23 C          63.1473   88.9305   16.6952 C.3     1  UNL1        0.1739
@<TRIPOS>BOND
     1    22    23    1
     2    23    20    1
     3    20    17    1
     4    17    18    2
     5    17     1    1
     6     1     2   am
     7     2     3    2
     8     2     4   am
     9     4     7    1
    10     7     8   ar
    11     8    13    1
    12    13    14    1
    13     8     9   ar
    14     9    10   ar
    15    10    11   ar
    16    11    12   ar
    17    12    15    1
    18    15    16    1
    19    12     7   ar
    20    20    21    1
    21    18    19    1
    22     1     5    1
    23     4     6    1
@<TRIPOS>MOLECULE
*****
 23 23 0 0 0
SMALL
GASTEIGER

@<TRIPOS>ATOM
      1 N          63.1696   87.7052   12.2164 N.am    1  UNL1       -0.1579
      2 C          62.7335   86.2710   12.2675 C.2     1  UNL1        0.3686
      3 O          61.4204   85.8645   11.6669 O.2     1  UNL1       -0.2332
      4 N          63.6104   85.2431   12.9190 N.am    1  UNL1       -0.2556
      5 H          64.0315   87.9720   12.6106 H       1  UNL1        0.2558
      6 H          64.4722   85.5099   13.3131 H       1  UNL1        0.1578
      7 C          63.1743   83.8088   12.9700 C.ar    1  UNL1        0.0448
      8 C          63.5032   82.8841   11.8358 C.ar    1  UNL1       -0.0089
      9 C          63.0671   81.4498   11.8868 C.ar    1  UNL1       -0.0031
     10 C          62.3020   80.9403   13.0721 C.ar    1  UNL1       -0.0006
     11 C          61.9731   81.8650   14.2064 C.ar    1  UNL1       -0.0031
     12 C          62.4092   83.2993   14.1553 C.ar    1  UNL1       -0.0089
     13 C          64.2683   83.3936   10.6504 C.3     1  UNL1        0.0276
     14 C          63.5349   83.9684    9.4750 C.3     1  UNL1        0.0051
     15 C          62.0802   84.2241   15.2897 C.3     1  UNL1        0.0276
     16 C          63.1829   84.8852   16.0623 C.3     1  UNL1        0.0051
     17 C          62.2926   88.7331   11.5649 C.2     1  UNL1        0.3790
     18 N          61.6552   89.8089   12.3933 N.pl3   1  UNL1       -0.1311
     19 H          61.0796   90.4835   11.9656 H       1  UNL1        0.3060
     20 N          62.0531   88.6851   10.0849 N.pl3   1  UNL1       -0.2637
     21 H          62.8149   88.6179    9.4649 H       1  UNL1        0.2586
     22 C          60.0881   87.5652    8.8064 C.3     1  UNL1        0.0464
     23 C          60.6530   88.7393    9.5496 C.3     1  UNL1        0.1739
@<TRIPOS>BOND
     1    22    23    1
     2    23    20    1
     3    20    17    1
     4    17    18    2
     5    17     1    1
     6     1     2   am
     7     2     3    2
     8     2     4   am
     9     4     7    1
    10     7     8   ar
    11     8    13    1
    12    13    14    1
    13     8     9   ar
    14     9    10   ar
    15    10    11   ar
    16    11    12   ar
    17    12    15    1
    18    15    16    1
    19    12     7   ar
    20    20    21    1
    21    18    19    1
    22     1     5    1
    23     4     6    1
@<TRIPOS>MOLECULE
*****
 23 23 0 0 0
SMALL
GASTEIGER

@<TRIPOS>ATOM
      1 N          63.1779   87.6869   12.2355 N.am    1  UNL1       -0.1579
      2 C          62.7410   86.2528   12.2856 C.2     1  UNL1        0.3686
      3 O          61.4323   85.8457   11.6759 O.2     1  UNL1       -0.2332
      4 N          63.6128   85.2258   12.9454 N.am    1  UNL1       -0.2556
      5 H          64.0368   87.9541   12.6356 H       1  UNL1        0.2558
      6 H          64.4717   85.4930   13.3456 H       1  UNL1        0.1578
      7 C          63.1759   83.7917   12.9955 C.ar    1  UNL1        0.0448
      8 C          62.4026   83.2841   14.1764 C.ar    1  UNL1       -0.0089
      9 C          61.9658   81.8500   14.2265 C.ar    1  UNL1       -0.0031
     10 C          62.3021   80.9235   13.0958 C.ar    1  UNL1       -0.0006
     11 C          63.0754   81.4312   11.9150 C.ar    1  UNL1       -0.0031
     12 C          63.5123   82.8653   11.8649 C.ar    1  UNL1       -0.0089
     13 C          62.0662   84.2106   15.3071 C.3     1  UNL1        0.0276
     14 C          63.1628   84.9016   16.0621 C.3     1  UNL1        0.0051
     15 C          64.2855   83.3729   10.6840 C.3     1  UNL1        0.0276
     16 C          63.5598   83.9344    9.4974 C.3     1  UNL1        0.0051
     17 C          62.3061   88.7139   11.5756 C.2     1  UNL1        0.3790
     18 N          61.6895   89.8106   12.3922 N.pl3   1  UNL1       -0.1311
     19 H          61.1173   90.4846   11.9592 H       1  UNL1        0.3060
     20 N          62.0509   88.6440   10.0991 N.pl3   1  UNL1       -0.2637
     21 H          62.8066   88.5781    9.4716 H       1  UNL1        0.2586
     22 C          60.0975   87.4981    8.8260 C.3     1  UNL1        0.0464
     23 C          60.6444   88.6746    9.5788 C.3     1  UNL1        0.1739
@<TRIPOS>BOND
     1    22    23    1
     2    23    20    1
     3    20    17    1
     4    17    18    2
     5    17     1    1
     6     1     2   am
     7     2     3    2
     8     2     4   am
     9     4     7    1
    10     7     8   ar
    11     8    13    1
    12    13    14    1
    13     8     9   ar
    14     9    10   ar
    15    10    11   ar
    16    11    12   ar
    17    12    15    1
    18    15    16    1
    19    12     7   ar
    20    20    21    1
    21    18    19    1
    22     1     5    1
    23     4     6    1
@<TRIPOS>MOLECULE
*****
 23 23 0 0 0
SMALL
GASTEIGER

@<TRIPOS>ATOM
      1 N          62.8807   88.4103   16.5659 N.am    1  UNL1       -0.1579
      2 C          63.6362   89.0595   15.4444 C.2     1  UNL1        0.3686
      3 O          64.5707   88.2453   14.5995 O.2     1  UNL1       -0.2332
      4 N          63.4572   90.5229   15.1678 N.am    1  UNL1       -0.2556
      5 H          62.2674   88.9446   17.1205 H       1  UNL1        0.2558
      6 H          62.8438   91.0572   15.7224 H       1  UNL1        0.1578
      7 C          64.2126   91.1721   14.0463 C.ar    1  UNL1        0.0448
      8 C          65.4302   91.9971   14.3409 C.ar    1  UNL1       -0.0089
      9 C          66.1856   92.6464   13.2194 C.ar    1  UNL1       -0.0031
     10 C          65.7235   92.4706   11.8033 C.ar    1  UNL1       -0.0006
     11 C          64.5060   91.6455   11.5087 C.ar    1  UNL1       -0.0031
     12 C          63.7505   90.9963   12.6302 C.ar    1  UNL1       -0.0089
     13 C          65.8923   92.1730   15.7572 C.3     1  UNL1        0.0276
     14 C          67.1873   92.8743   16.0419 C.3     1  UNL1        0.0051
     15 C          62.5329   90.1712   12.3355 C.3     1  UNL1        0.0276
     16 C          62.6735   88.8466   11.6459 C.3     1  UNL1        0.0051
     17 C          63.0598   86.9469   16.8425 C.2     1  UNL1        0.3790
     18 N          62.3031   86.2973   17.9629 N.pl3   1  UNL1       -0.1311
     19 H          62.4206   85.3368   18.1444 H       1  UNL1        0.3060
     20 N          63.9955   86.1331   15.9986 N.pl3   1  UNL1       -0.2637
     21 H          64.9467   86.3802   15.9401 H       1  UNL1        0.2586
     22 C          63.6149   84.8874   13.7507 C.3     1  UNL1        0.0464
     23 C          63.4821   84.9430   15.2437 C.3     1  UNL1        0.1739
@<TRIPOS>BOND
     1    22    23    1
     2    23    20    1
     3    20    17    1
     4    17    18    2
     5    17     1    1
     6     1     2   am
     7     2     3    2
     8     2     4   am
     9     4     7    1
    10     7     8   ar
    11     8    13    1
    12    13    14    1
    13     8     9   ar
    14     9    10   ar
    15    10    11   ar
    16    11    12   ar
    17    12    15    1
    18    15    16    1
    19    12     7   ar
    20    20    21    1
    21    18    19    1
    22     1     5    1
    23     4     6    1
@<TRIPOS>MOLECULE
*****
 23 23 0 0 0
SMALL
GASTEIGER

@<TRIPOS>ATOM
      1 N          62.8605   88.4654   16.6066 N.am    1  UNL1       -0.1579
      2 C          63.6147   89.0985   15.4751 C.2     1  UNL1        0.3686
      3 O          64.5111   88.2624   14.6105 O.2     1  UNL1       -0.2332
      4 N          63.4725   90.5676   15.2081 N.am    1  UNL1       -0.2556
      5 H          62.2721   89.0141   17.1741 H       1  UNL1        0.2558
      6 H          62.8842   91.1164   15.7756 H       1  UNL1        0.1578
      7 C          64.2267   91.2008   14.0766 C.ar    1  UNL1        0.0448
      8 C          63.7574   91.0128   12.6644 C.ar    1  UNL1       -0.0089
      9 C          64.5116   91.6459   11.5329 C.ar    1  UNL1       -0.0031
     10 C          65.7351   92.4670   11.8136 C.ar    1  UNL1       -0.0006
     11 C          66.2044   92.6550   13.2258 C.ar    1  UNL1       -0.0031
     12 C          65.4502   92.0218   14.3573 C.ar    1  UNL1       -0.0089
     13 C          62.5338   90.1917   12.3836 C.3     1  UNL1        0.0276
     14 C          62.6504   88.9129   11.6084 C.3     1  UNL1        0.0051
     15 C          65.9195   92.2099   15.7696 C.3     1  UNL1        0.0276
     16 C          67.2373   92.8735   16.0398 C.3     1  UNL1        0.0051
     17 C          63.0027   86.9961   16.8736 C.2     1  UNL1        0.3790
     18 N          62.3643   86.3892   18.0877 N.pl3   1  UNL1       -0.1311
     19 H          62.4577   85.4249   18.2628 H       1  UNL1        0.3060
     20 N          63.7833   86.1339   15.9264 N.pl3   1  UNL1       -0.2637
     21 H          64.6680   86.4270   15.6091 H       1  UNL1        0.2586
     22 C          64.1348   83.7153   15.0450 C.3     1  UNL1        0.0464
     23 C          63.2161   84.8251   15.4626 C.3     1  UNL1        0.1739
@<TRIPOS>BOND
     1    22    23    1
     2    23    20    1
     3    20    17    1
     4    17    18    2
     5    17     1    1
     6     1     2   am
     7     2     3    2
     8     2     4   am
     9     4     7    1
    10     7     8   ar
    11     8    13    1
    12    13    14    1
    13     8     9   ar
    14     9    10   ar
    15    10    11   ar
    16    11    12   ar
    17    12    15    1
    18    15    16    1
    19    12     7   ar
    20    20    21    1
    21    18    19    1
    22     1     5    1
    23     4     6    1
@<TRIPOS>MOLECULE
*****
 23 23 0 0 0
SMALL
GASTEIGER

@<TRIPOS>ATOM
      1 N          63.6969   86.6225   13.1815 N.am    1  UNL1       -0.1579
      2 C          62.6849   86.3529   12.1076 C.2     1  UNL1        0.3686
      3 O          61.8146   85.1336   12.1863 O.2     1  UNL1       -0.2332
      4 N          62.5433   87.3023   10.9551 N.am    1  UNL1       -0.2556
      5 H          64.2681   87.4227   13.1298 H       1  UNL1        0.2558
      6 H          63.1145   88.1025   10.9034 H       1  UNL1        0.1578
      7 C          61.5313   87.0327    9.8812 C.ar    1  UNL1        0.0448
      8 C          60.1790   87.6786    9.9457 C.ar    1  UNL1       -0.0089
      9 C          59.1670   87.4089    8.8719 C.ar    1  UNL1       -0.0031
     10 C          59.5073   86.4933    7.7335 C.ar    1  UNL1       -0.0006
     11 C          60.8595   85.8475    7.6690 C.ar    1  UNL1       -0.0031
     12 C          61.8715   86.1171    8.7428 C.ar    1  UNL1       -0.0089
     13 C          59.8387   88.5942   11.0842 C.3     1  UNL1        0.0276
     14 C          59.9917   90.0778   10.9249 C.3     1  UNL1        0.0051
     15 C          63.2238   85.4712    8.6783 C.3     1  UNL1        0.0276
     16 C          63.4419   84.1239    9.3007 C.3     1  UNL1        0.0051
     17 C          63.8386   85.6730   14.3340 C.2     1  UNL1        0.3790
     18 N          65.1957   85.3791   14.9013 N.pl3   1  UNL1       -0.1311
     19 H          65.2887   84.7559   15.6577 H       1  UNL1        0.3060
     20 N          62.6230   85.0173   14.9193 N.pl3   1  UNL1       -0.2637
     21 H          61.7797   85.5200   14.9926 H       1  UNL1        0.2586
     22 C          62.3156   82.4775   14.4671 C.3     1  UNL1        0.0464
     23 C          62.6924   83.5958   15.3930 C.3     1  UNL1        0.1739
@<TRIPOS>BOND
     1    22    23    1
     2    23    20    1
     3    20    17    1
     4    17    18    2
     5    17     1    1
     6     1     2   am
     7     2     3    2
     8     2     4   am
     9     4     7    1
    10     7     8   ar
    11     8    13    1
    12    13    14    1
    13     8     9   ar
    14     9    10   ar
    15    10    11   ar
    16    11    12   ar
    17    12    15    1
    18    15    16    1
    19    12     7   ar
    20    20    21    1
    21    18    19    1
    22     1     5    1
    23     4     6    1
@<TRIPOS>MOLECULE
*****
 23 23 0 0 0
SMALL
GASTEIGER

@<TRIPOS>ATOM
      1 N          60.4650   88.3796   11.6954 N.am    1  UNL1       -0.1579
      2 C          61.5783   87.3903   11.5169 C.2     1  UNL1        0.3686
      3 O          63.0049   87.8527   11.5496 O.2     1  UNL1       -0.2332
      4 N          61.2650   85.9387   11.3057 N.am    1  UNL1       -0.2556
      5 H          59.5287   88.0762   11.6740 H       1  UNL1        0.2558
      6 H          60.3287   85.6353   11.2842 H       1  UNL1        0.1578
      7 C          62.3783   84.9494   11.1271 C.ar    1  UNL1        0.0448
      8 C          62.9675   84.7208    9.7668 C.ar    1  UNL1       -0.0089
      9 C          64.0808   83.7315    9.5882 C.ar    1  UNL1       -0.0031
     10 C          64.6049   82.9709   10.7700 C.ar    1  UNL1       -0.0006
     11 C          64.0158   83.1995   12.1304 C.ar    1  UNL1       -0.0031
     12 C          62.9025   84.1888   12.3089 C.ar    1  UNL1       -0.0089
     13 C          62.4433   85.4814    8.5849 C.3     1  UNL1        0.0276
     14 C          62.5778   84.9090    7.2050 C.3     1  UNL1        0.0051
     15 C          62.3133   84.4175   13.6694 C.3     1  UNL1        0.0276
     16 C          62.4045   83.3466   14.7158 C.3     1  UNL1        0.0051
     17 C          60.7783   89.8313   11.9067 C.2     1  UNL1        0.3790
     18 N          59.7599   90.8765   11.5600 N.pl3   1  UNL1       -0.1311
     19 H          59.9656   91.8293   11.6986 H       1  UNL1        0.3060
     20 N          62.1101   90.2376   12.4646 N.pl3   1  UNL1       -0.2637
     21 H          62.4116   89.8781   13.3301 H       1  UNL1        0.2586
     22 C          63.0951   91.0787   10.2125 C.3     1  UNL1        0.0464
     23 C          62.9824   91.1917   11.7040 C.3     1  UNL1        0.1739
@<TRIPOS>BOND
     1    22    23    1
     2    23    20    1
     3    20    17    1
     4    17    18    2
     5    17     1    1
     6     1     2   am
     7     2     3    2
     8     2     4   am
     9     4     7    1
    10     7     8   ar
    11     8    13    1
    12    13    14    1
    13     8     9   ar
    14     9    10   ar
    15    10    11   ar
    16    11    12   ar
    17    12    15    1
    18    15    16    1
    19    12     7   ar
    20    20    21    1
    21    18    19    1
    22     1     5    1
    23     4     6    1
@<TRIPOS>MOLECULE
*****
 23 23 0 0 0
SMALL
GASTEIGER

@<TRIPOS>ATOM
      1 N          60.4387   88.3530   11.6530 N.am    1  UNL1       -0.1579
      2 C          61.5604   87.3732   11.4749 C.2     1  UNL1        0.3686
      3 O          62.9838   87.8386   11.5623 O.2     1  UNL1       -0.2332
      4 N          61.2589   85.9280   11.2095 N.am    1  UNL1       -0.2556
      5 H          59.5045   88.0476   11.5957 H       1  UNL1        0.2558
      6 H          60.3247   85.6226   11.1521 H       1  UNL1        0.1578
      7 C          62.3806   84.9482   11.0314 C.ar    1  UNL1        0.0448
      8 C          62.8985   84.1787   12.2101 C.ar    1  UNL1       -0.0089
      9 C          64.0202   83.1989   12.0321 C.ar    1  UNL1       -0.0031
     10 C          64.6241   82.9886   10.6752 C.ar    1  UNL1       -0.0006
     11 C          64.1062   83.7582    9.4964 C.ar    1  UNL1       -0.0031
     12 C          62.9845   84.7380    9.6745 C.ar    1  UNL1       -0.0089
     13 C          62.2946   84.3889   13.5671 C.3     1  UNL1        0.0276
     14 C          62.3493   83.2934   14.5902 C.3     1  UNL1        0.0051
     15 C          62.4666   85.5075    8.4957 C.3     1  UNL1        0.0276
     16 C          62.3778   84.8494    7.1507 C.3     1  UNL1        0.0051
     17 C          60.7403   89.7982   11.9184 C.2     1  UNL1        0.3790
     18 N          59.7077   90.8460   11.6254 N.pl3   1  UNL1       -0.1311
     19 H          59.9057   91.7945   11.7996 H       1  UNL1        0.3060
     20 N          62.0745   90.1956   12.4770 N.pl3   1  UNL1       -0.2637
     21 H          62.3744   89.8320   13.3413 H       1  UNL1        0.2586
     22 C          63.0531   91.0458   10.2254 C.3     1  UNL1        0.0464
     23 C          62.9518   91.1470   11.7186 C.3     1  UNL1        0.1739
@<TRIPOS>BOND
     1    22    23    1
     2    23    20    1
     3    20    17    1
     4    17    18    2
     5    17     1    1
     6     1     2   am
     7     2     3    2
     8     2     4   am
     9     4     7    1
    10     7     8   ar
    11     8    13    1
    12    13    14    1
    13     8     9   ar
    14     9    10   ar
    15    10    11   ar
    16    11    12   ar
    17    12    15    1
    18    15    16    1
    19    12     7   ar
    20    20    21    1
    21    18    19    1
    22     1     5    1
    23     4     6    1
@<TRIPOS>MOLECULE
*****
 23 23 0 0 0
SMALL
GASTEIGER

@<TRIPOS>ATOM
      1 N          63.0458   87.7511   12.0480 N.am    1  UNL1       -0.1579
      2 C          62.6463   86.3083   12.1411 C.2     1  UNL1        0.3686
      3 O          61.3271   85.8581   11.5869 O.2     1  UNL1       -0.2332
      4 N          63.5659   85.3157   12.7884 N.am    1  UNL1       -0.2556
      5 H          63.9116   88.0466   12.4118 H       1  UNL1        0.2558
      6 H          64.4317   85.6111   13.1521 H       1  UNL1        0.1578
      7 C          63.1664   83.8728   12.8815 C.ar    1  UNL1        0.0448
      8 C          62.4302   83.3749   14.0897 C.ar    1  UNL1       -0.0089
      9 C          62.0307   81.9321   14.1828 C.ar    1  UNL1       -0.0031
     10 C          62.3674   80.9872   13.0676 C.ar    1  UNL1       -0.0006
     11 C          63.1036   81.4851   11.8593 C.ar    1  UNL1       -0.0031
     12 C          63.5031   82.9279   11.7663 C.ar    1  UNL1       -0.0089
     13 C          62.0934   84.3199   15.2050 C.3     1  UNL1        0.0276
     14 C          63.1894   84.9327   16.0255 C.3     1  UNL1        0.0051
     15 C          64.2394   83.4258   10.5579 C.3     1  UNL1        0.0276
     16 C          63.4794   84.0139    9.4061 C.3     1  UNL1        0.0051
     17 C          62.1262   88.7437   11.4007 C.2     1  UNL1        0.3790
     18 N          60.7451   88.9538   11.9470 N.pl3   1  UNL1       -0.1311
     19 H          60.1415   89.6052   11.5222 H       1  UNL1        0.3060
     20 N          62.5876   89.5262   10.2071 N.pl3   1  UNL1       -0.2637
     21 H          62.5554   89.1211    9.3104 H       1  UNL1        0.2586
     22 C          63.8488   91.3027   11.6226 C.3     1  UNL1        0.0464
     23 C          63.0982   90.9260   10.3797 C.3     1  UNL1        0.1739
@<TRIPOS>BOND
     1    22    23    1
     2    23    20    1
     3    20    17    1
     4    17    18    2
     5    17     1    1
     6     1     2   am
     7     2     3    2
     8     2     4   am
     9     4     7    1
    10     7     8   ar
    11     8    13    1
    12    13    14    1
    13     8     9   ar
    14     9    10   ar
    15    10    11   ar
    16    11    12   ar
    17    12    15    1
    18    15    16    1
    19    12     7   ar
    20    20    21    1
    21    18    19    1
    22     1     5    1
    23     4     6    1
