@<TRIPOS>MOLECULE
*****
 22 24 0 0 0
SMALL
GASTEIGER

@<TRIPOS>ATOM
      1 C          59.8036   86.3211    7.7862 C.3     1  UNL1        0.0310
      2 C          60.4962   87.1716    8.8094 C.ar    1  UNL1       -0.0222
      3 C          60.3339   88.6624    8.7796 C.ar    1  UNL1       -0.0043
      4 C          61.0265   89.5129    9.8028 C.ar    1  UNL1       -0.0009
      5 C          61.8813   88.8725   10.8559 C.ar    1  UNL1       -0.0079
      6 C          62.0436   87.3816   10.8858 C.ar    1  UNL1       -0.0187
      7 C          61.3510   86.5312    9.8625 C.ar    1  UNL1       -0.0082
      8 C          62.9434   87.0362   12.0352 C.3     1  UNL1        0.0480
      9 C          63.3373   88.3136   12.7156 C.2     1  UNL1       -0.0420
     10 C          62.6809   89.4485   11.9868 C.2     1  UNL1       -0.0240
     11 C          64.2307   88.4349   13.9145 C.3     1  UNL1        0.0394
     12 C          64.3266   87.3044   14.8958 C.3     1  UNL1        0.0765
     13 N          63.5175   87.3366   16.1584 N.3     1  UNL1       -0.2700
     14 C          63.0769   88.6500   16.7336 C.3     1  UNL1        0.0897
     15 C          63.1490   86.0553   16.8458 C.3     1  UNL1        0.0897
     16 C          62.8026   90.9039   12.3289 C.3     1  UNL1        0.0730
     17 C          64.1155   91.6081   12.1544 C.ar    1  UNL1        0.0825
     18 C          64.6050   91.9522   10.7789 C.ar    1  UNL1        0.1139
     19 N          65.9179   92.6564   10.6044 N.ar    1  UNL1       -0.2394
     20 C          66.7413   93.0164   11.8054 C.ar    1  UNL1        0.1195
     21 C          66.2518   92.6722   13.1809 C.ar    1  UNL1        0.1191
     22 N          64.9389   91.9681   13.3554 N.ar    1  UNL1       -0.2446
@<TRIPOS>BOND
     1     1     2    1
     2     2     3   ar
     3     3     4   ar
     4     4     5   ar
     5     5     6   ar
     6     6     7   ar
     7     6     8    1
     8     8     9    1
     9     9    11    1
    10    11    12    1
    11    12    13    1
    12    13    14    1
    13    13    15    1
    14     9    10    2
    15    10    16    1
    16    16    17    1
    17    17    18   ar
    18    18    19   ar
    19    19    20   ar
    20    20    21   ar
    21    21    22   ar
    22     7     2   ar
    23    22    17   ar
    24    10     5    1
@<TRIPOS>MOLECULE
*****
 22 24 0 0 0
SMALL
GASTEIGER

@<TRIPOS>ATOM
      1 C          61.6301   84.1201    5.2390 C.3     1  UNL1        0.0310
      2 C          61.7576   84.7653    6.5871 C.ar    1  UNL1       -0.0222
      3 C          62.9785   84.5204    7.4234 C.ar    1  UNL1       -0.0043
      4 C          63.1060   85.1656    8.7715 C.ar    1  UNL1       -0.0009
      5 C          62.0126   86.0557    9.2834 C.ar    1  UNL1       -0.0079
      6 C          60.7917   86.3006    8.4472 C.ar    1  UNL1       -0.0187
      7 C          60.6642   85.6554    7.0990 C.ar    1  UNL1       -0.0082
      8 C          59.8839   87.2194    9.2101 C.3     1  UNL1        0.0480
      9 C          60.5439   87.5422   10.5178 C.2     1  UNL1       -0.0420
     10 C          61.8595   86.8230   10.5631 C.2     1  UNL1       -0.0240
     11 C          59.9862   88.4287   11.5918 C.3     1  UNL1        0.0394
     12 C          60.3858   89.8731   11.6546 C.3     1  UNL1        0.0765
     13 N          61.8370   90.2517   11.6272 N.3     1  UNL1       -0.2700
     14 C          62.4640   90.7276   10.3504 C.3     1  UNL1        0.0897
     15 C          62.6611   90.1543   12.8767 C.3     1  UNL1        0.0897
     16 C          62.8483   86.8640   11.6903 C.3     1  UNL1        0.0730
     17 C          62.9829   85.6891   12.6130 C.ar    1  UNL1        0.0825
     18 C          62.5486   84.3265   12.1606 C.ar    1  UNL1        0.1139
     19 N          62.6832   83.1516   13.0833 N.ar    1  UNL1       -0.2394
     20 C          63.2522   83.3392   14.4585 C.ar    1  UNL1        0.1195
     21 C          63.6866   84.7018   14.9109 C.ar    1  UNL1        0.1191
     22 N          63.5520   85.8767   13.9881 N.ar    1  UNL1       -0.2446
@<TRIPOS>BOND
     1     1     2    1
     2     2     3   ar
     3     3     4   ar
     4     4     5   ar
     5     5     6   ar
     6     6     7   ar
     7     6     8    1
     8     8     9    1
     9     9    11    1
    10    11    12    1
    11    12    13    1
    12    13    14    1
    13    13    15    1
    14     9    10    2
    15    10    16    1
    16    16    17    1
    17    17    18   ar
    18    18    19   ar
    19    19    20   ar
    20    20    21   ar
    21    21    22   ar
    22     7     2   ar
    23    22    17   ar
    24    10     5    1
@<TRIPOS>MOLECULE
*****
 22 24 0 0 0
SMALL
GASTEIGER

@<TRIPOS>ATOM
      1 C          60.7330   87.0142    8.5771 C.3     1  UNL1        0.0310
      2 C          61.5202   87.2311    9.8354 C.ar    1  UNL1       -0.0222
      3 C          61.9961   86.0544   10.6346 C.ar    1  UNL1       -0.0043
      4 C          62.7832   86.2713   11.8929 C.ar    1  UNL1       -0.0009
      5 C          63.0944   87.6649   12.3520 C.ar    1  UNL1       -0.0079
      6 C          62.6185   88.8417   11.5528 C.ar    1  UNL1       -0.0187
      7 C          61.8314   88.6247   10.2945 C.ar    1  UNL1       -0.0082
      8 C          63.0745   90.0897   12.2489 C.3     1  UNL1        0.0480
      9 C          63.8323   89.6843   13.4783 C.2     1  UNL1       -0.0420
     10 C          63.8445   88.1857   13.5420 C.2     1  UNL1       -0.0240
     11 C          64.4664   90.6142   14.4699 C.3     1  UNL1        0.0394
     12 C          65.8599   91.1194   14.2395 C.3     1  UNL1        0.0765
     13 N          66.0762   92.4939   13.6793 N.3     1  UNL1       -0.2700
     14 C          65.6200   92.8169   12.2874 C.3     1  UNL1        0.0897
     15 C          66.7488   93.5454   14.5111 C.3     1  UNL1        0.0897
     16 C          64.4931   87.3538   14.6085 C.3     1  UNL1        0.0730
     17 C          64.1089   85.9133   14.7735 C.ar    1  UNL1        0.0825
     18 C          64.9974   84.8333   14.2312 C.ar    1  UNL1        0.1139
     19 N          64.6132   83.3927   14.3962 N.ar    1  UNL1       -0.2394
     20 C          63.3404   83.0322   15.1034 C.ar    1  UNL1        0.1195
     21 C          62.4519   84.1122   15.6456 C.ar    1  UNL1        0.1191
     22 N          62.8361   85.5528   15.4807 N.ar    1  UNL1       -0.2446
@<TRIPOS>BOND
     1     1     2    1
     2     2     3   ar
     3     3     4   ar
     4     4     5   ar
     5     5     6   ar
     6     6     7   ar
     7     6     8    1
     8     8     9    1
     9     9    11    1
    10    11    12    1
    11    12    13    1
    12    13    14    1
    13    13    15    1
    14     9    10    2
    15    10    16    1
    16    16    17    1
    17    17    18   ar
    18    18    19   ar
    19    19    20   ar
    20    20    21   ar
    21    21    22   ar
    22     7     2   ar
    23    22    17   ar
    24    10     5    1
@<TRIPOS>MOLECULE
*****
 22 24 0 0 0
SMALL
GASTEIGER

@<TRIPOS>ATOM
      1 C          64.4947   84.1857   14.7812 C.3     1  UNL1        0.0310
      2 C          64.1370   85.5150   14.1853 C.ar    1  UNL1       -0.0222
      3 C          64.5184   86.7813   14.8931 C.ar    1  UNL1       -0.0043
      4 C          64.1607   88.1105   14.2972 C.ar    1  UNL1       -0.0009
      5 C          63.4217   88.1735   12.9934 C.ar    1  UNL1       -0.0079
      6 C          63.0403   86.9072   12.2856 C.ar    1  UNL1       -0.0187
      7 C          63.3980   85.5780   12.8815 C.ar    1  UNL1       -0.0082
      8 C          62.3203   87.2804   11.0237 C.3     1  UNL1        0.0480
      9 C          62.2566   88.7773   10.9516 C.2     1  UNL1       -0.0420
     10 C          62.9373   89.3293   12.1690 C.2     1  UNL1       -0.0240
     11 C          61.6234   89.5811    9.8548 C.3     1  UNL1        0.0394
     12 C          60.1702   89.3963    9.5326 C.3     1  UNL1        0.0765
     13 N          59.7631   88.5523    8.3613 N.3     1  UNL1       -0.2700
     14 C          59.4698   89.1964    7.0387 C.3     1  UNL1        0.0897
     15 C          59.6492   87.0644    8.5125 C.3     1  UNL1        0.0897
     16 C          63.1044   90.7819   12.5033 C.3     1  UNL1        0.0730
     17 C          64.4009   91.4755   12.2068 C.ar    1  UNL1        0.0825
     18 C          65.4279   91.6399   13.2876 C.ar    1  UNL1        0.1139
     19 N          66.7244   92.3335   12.9911 N.ar    1  UNL1       -0.2394
     20 C          66.9940   92.8627   11.6137 C.ar    1  UNL1        0.1195
     21 C          65.9670   92.6984   10.5328 C.ar    1  UNL1        0.1191
     22 N          64.6705   92.0048   10.8294 N.ar    1  UNL1       -0.2446
@<TRIPOS>BOND
     1     1     2    1
     2     2     3   ar
     3     3     4   ar
     4     4     5   ar
     5     5     6   ar
     6     6     7   ar
     7     6     8    1
     8     8     9    1
     9     9    11    1
    10    11    12    1
    11    12    13    1
    12    13    14    1
    13    13    15    1
    14     9    10    2
    15    10    16    1
    16    16    17    1
    17    17    18   ar
    18    18    19   ar
    19    19    20   ar
    20    20    21   ar
    21    21    22   ar
    22     7     2   ar
    23    22    17   ar
    24    10     5    1
@<TRIPOS>MOLECULE
*****
 22 24 0 0 0
SMALL
GASTEIGER

@<TRIPOS>ATOM
      1 C          62.7792   78.1993   10.5514 C.3     1  UNL1        0.0310
      2 C          62.8237   79.6160   11.0422 C.ar    1  UNL1       -0.0222
      3 C          63.2841   80.7124   10.1279 C.ar    1  UNL1       -0.0043
      4 C          63.3286   82.1291   10.6188 C.ar    1  UNL1       -0.0009
      5 C          62.9127   82.4495   12.0239 C.ar    1  UNL1       -0.0079
      6 C          62.4523   81.3531   12.9381 C.ar    1  UNL1       -0.0187
      7 C          62.4078   79.9364   12.4473 C.ar    1  UNL1       -0.0082
      8 C          62.1060   81.9681   14.2618 C.3     1  UNL1        0.0480
      9 C          62.3525   83.4446   14.1655 C.2     1  UNL1       -0.0420
     10 C          62.8511   83.7421   12.7824 C.2     1  UNL1       -0.0240
     11 C          62.1380   84.4475   15.2601 C.3     1  UNL1        0.0394
     12 C          63.3130   85.0035   16.0087 C.3     1  UNL1        0.0765
     13 N          63.5253   86.4868   16.0768 N.3     1  UNL1       -0.2700
     14 C          62.9520   87.2749   17.2171 C.3     1  UNL1        0.0897
     15 C          64.3107   87.1820   15.0046 C.3     1  UNL1        0.0897
     16 C          63.2227   85.0947   12.2511 C.3     1  UNL1        0.0730
     17 C          62.3472   85.7684   11.2364 C.ar    1  UNL1        0.0825
     18 C          62.5398   85.4882    9.7755 C.ar    1  UNL1        0.1139
     19 N          61.6642   86.1619    8.7608 N.ar    1  UNL1       -0.2394
     20 C          60.5962   87.1159    9.2071 C.ar    1  UNL1        0.1195
     21 C          60.4036   87.3961   10.6680 C.ar    1  UNL1        0.1191
     22 N          61.2791   86.7224   11.6827 N.ar    1  UNL1       -0.2446
@<TRIPOS>BOND
     1     1     2    1
     2     2     3   ar
     3     3     4   ar
     4     4     5   ar
     5     5     6   ar
     6     6     7   ar
     7     6     8    1
     8     8     9    1
     9     9    11    1
    10    11    12    1
    11    12    13    1
    12    13    14    1
    13    13    15    1
    14     9    10    2
    15    10    16    1
    16    16    17    1
    17    17    18   ar
    18    18    19   ar
    19    19    20   ar
    20    20    21   ar
    21    21    22   ar
    22     7     2   ar
    23    22    17   ar
    24    10     5    1
@<TRIPOS>MOLECULE
*****
 22 24 0 0 0
SMALL
GASTEIGER

@<TRIPOS>ATOM
      1 C          60.0341   86.5676    8.3927 C.3     1  UNL1        0.0310
      2 C          60.9348   86.9170    9.5402 C.ar    1  UNL1       -0.0222
      3 C          61.5964   85.8288   10.3326 C.ar    1  UNL1       -0.0043
      4 C          62.4971   86.1783   11.4801 C.ar    1  UNL1       -0.0009
      5 C          62.7361   87.6159   11.8351 C.ar    1  UNL1       -0.0079
      6 C          62.0745   88.7041   11.0427 C.ar    1  UNL1       -0.0187
      7 C          61.1738   88.3546    9.8952 C.ar    1  UNL1       -0.0082
      8 C          62.4958   90.0217   11.6228 C.3     1  UNL1        0.0480
      9 C          63.4178   89.7477   12.7738 C.2     1  UNL1       -0.0420
     10 C          63.5664   88.2609   12.9050 C.2     1  UNL1       -0.0240
     11 C          64.0759   90.7795   13.6413 C.3     1  UNL1        0.0394
     12 C          65.0730   91.7313   13.0497 C.3     1  UNL1        0.0765
     13 N          66.2860   92.1313   13.8362 N.3     1  UNL1       -0.2700
     14 C          66.1413   92.5871   15.2579 C.3     1  UNL1        0.0897
     15 C          67.6436   92.0756   13.2009 C.3     1  UNL1        0.0897
     16 C          64.3990   87.5447   13.9267 C.3     1  UNL1        0.0730
     17 C          63.8046   87.1756   15.2535 C.ar    1  UNL1        0.0825
     18 C          63.6007   85.7326   15.6087 C.ar    1  UNL1        0.1139
     19 N          63.0063   85.3636   16.9355 N.ar    1  UNL1       -0.2394
     20 C          62.6157   86.4375   17.9071 C.ar    1  UNL1        0.1195
     21 C          62.8195   87.8805   17.5520 C.ar    1  UNL1        0.1191
     22 N          63.4140   88.2496   16.2251 N.ar    1  UNL1       -0.2446
@<TRIPOS>BOND
     1     1     2    1
     2     2     3   ar
     3     3     4   ar
     4     4     5   ar
     5     5     6   ar
     6     6     7   ar
     7     6     8    1
     8     8     9    1
     9     9    11    1
    10    11    12    1
    11    12    13    1
    12    13    14    1
    13    13    15    1
    14     9    10    2
    15    10    16    1
    16    16    17    1
    17    17    18   ar
    18    18    19   ar
    19    19    20   ar
    20    20    21   ar
    21    21    22   ar
    22     7     2   ar
    23    22    17   ar
    24    10     5    1
@<TRIPOS>MOLECULE
*****
 22 24 0 0 0
SMALL
GASTEIGER

@<TRIPOS>ATOM
      1 C          59.8533   86.3288    8.4634 C.3     1  UNL1        0.0310
      2 C          60.7482   87.0173    9.4509 C.ar    1  UNL1       -0.0222
      3 C          61.2208   86.2857   10.6721 C.ar    1  UNL1       -0.0043
      4 C          62.1157   86.9742   11.6595 C.ar    1  UNL1       -0.0009
      5 C          62.5381   88.3943   11.4257 C.ar    1  UNL1       -0.0079
      6 C          62.0656   89.1260   10.2045 C.ar    1  UNL1       -0.0187
      7 C          61.1706   88.4374    9.2171 C.ar    1  UNL1       -0.0082
      8 C          62.6429   90.5100   10.2409 C.3     1  UNL1        0.0480
      9 C          63.4722   90.6337   11.4847 C.2     1  UNL1       -0.0420
     10 C          63.4075   89.3261   12.2169 C.2     1  UNL1       -0.0240
     11 C          64.2329   91.8511   11.9198 C.3     1  UNL1        0.0394
     12 C          64.8565   92.7518   10.8952 C.3     1  UNL1        0.0765
     13 N          66.3035   93.1297   11.0101 N.3     1  UNL1       -0.2700
     14 C          66.8580   94.2399   10.1675 C.3     1  UNL1        0.0897
     15 C          67.1961   92.3973   11.9676 C.3     1  UNL1        0.0897
     16 C          64.0919   89.0064   13.5128 C.3     1  UNL1        0.0730
     17 C          64.3485   90.0939   14.5136 C.ar    1  UNL1        0.0825
     18 C          63.3111   90.4234   15.5456 C.ar    1  UNL1        0.1139
     19 N          63.5677   91.5109   16.5465 N.ar    1  UNL1       -0.2394
     20 C          64.8618   92.2687   16.5153 C.ar    1  UNL1        0.1195
     21 C          65.8993   91.9391   15.4833 C.ar    1  UNL1        0.1191
     22 N          65.6426   90.8517   14.4825 N.ar    1  UNL1       -0.2446
@<TRIPOS>BOND
     1     1     2    1
     2     2     3   ar
     3     3     4   ar
     4     4     5   ar
     5     5     6   ar
     6     6     7   ar
     7     6     8    1
     8     8     9    1
     9     9    11    1
    10    11    12    1
    11    12    13    1
    12    13    14    1
    13    13    15    1
    14     9    10    2
    15    10    16    1
    16    16    17    1
    17    17    18   ar
    18    18    19   ar
    19    19    20   ar
    20    20    21   ar
    21    21    22   ar
    22     7     2   ar
    23    22    17   ar
    24    10     5    1
@<TRIPOS>MOLECULE
*****
 22 24 0 0 0
SMALL
GASTEIGER

@<TRIPOS>ATOM
      1 C          64.1381   83.6747   14.9902 C.3     1  UNL1        0.0310
      2 C          63.8698   84.9394   14.2296 C.ar    1  UNL1       -0.0222
      3 C          63.1591   84.8844   12.9098 C.ar    1  UNL1       -0.0043
      4 C          62.8909   86.1491   12.1492 C.ar    1  UNL1       -0.0009
      5 C          63.3332   87.4688   12.7083 C.ar    1  UNL1       -0.0079
      6 C          64.0439   87.5238   14.0281 C.ar    1  UNL1       -0.0187
      7 C          64.3122   86.2591   14.7887 C.ar    1  UNL1       -0.0082
      8 C          64.3591   88.9599   14.3254 C.3     1  UNL1        0.0480
      9 C          63.8433   89.7924   13.1893 C.2     1  UNL1       -0.0420
     10 C          63.2093   88.8709   12.1899 C.2     1  UNL1       -0.0240
     11 C          63.9438   91.2846   13.0730 C.3     1  UNL1        0.0394
     12 C          65.0326   91.9007   12.2454 C.3     1  UNL1        0.0765
     13 N          65.8655   93.0131   12.8099 N.3     1  UNL1       -0.2700
     14 C          66.2305   94.1872   11.9507 C.3     1  UNL1        0.0897
     15 C          66.3335   92.9514   14.2337 C.3     1  UNL1        0.0897
     16 C          62.5644   89.2797   10.8988 C.3     1  UNL1        0.0730
     17 C          61.7793   88.2796   10.1029 C.ar    1  UNL1        0.0825
     18 C          60.2817   88.3566   10.0699 C.ar    1  UNL1        0.1139
     19 N          59.4966   87.3565    9.2741 N.ar    1  UNL1       -0.2394
     20 C          60.2091   86.2793    8.5112 C.ar    1  UNL1        0.1195
     21 C          61.7067   86.2023    8.5441 C.ar    1  UNL1        0.1191
     22 N          62.4919   87.2024    9.3400 N.ar    1  UNL1       -0.2446
@<TRIPOS>BOND
     1     1     2    1
     2     2     3   ar
     3     3     4   ar
     4     4     5   ar
     5     5     6   ar
     6     6     7   ar
     7     6     8    1
     8     8     9    1
     9     9    11    1
    10    11    12    1
    11    12    13    1
    12    13    14    1
    13    13    15    1
    14     9    10    2
    15    10    16    1
    16    16    17    1
    17    17    18   ar
    18    18    19   ar
    19    19    20   ar
    20    20    21   ar
    21    21    22   ar
    22     7     2   ar
    23    22    17   ar
    24    10     5    1
@<TRIPOS>MOLECULE
*****
 22 24 0 0 0
SMALL
GASTEIGER

@<TRIPOS>ATOM
      1 C          64.0618   83.6974   14.5875 C.3     1  UNL1        0.0310
      2 C          63.9789   85.1894   14.4570 C.ar    1  UNL1       -0.0222
      3 C          64.3188   86.0646   15.6267 C.ar    1  UNL1       -0.0043
      4 C          64.2359   87.5566   15.4962 C.ar    1  UNL1       -0.0009
      5 C          63.8133   88.1734   14.1959 C.ar    1  UNL1       -0.0079
      6 C          63.4734   87.2982   13.0261 C.ar    1  UNL1       -0.0187
      7 C          63.5562   85.8062   13.1566 C.ar    1  UNL1       -0.0082
      8 C          63.0908   88.1856   11.8789 C.3     1  UNL1        0.0480
      9 C          63.1942   89.6093   12.3397 C.2     1  UNL1       -0.0420
     10 C          63.6407   89.6018   13.7717 C.2     1  UNL1       -0.0240
     11 C          62.9023   90.8269   11.5136 C.3     1  UNL1        0.0394
     12 C          62.1255   90.6984   10.2368 C.3     1  UNL1        0.0765
     13 N          60.7621   90.0731   10.2482 N.3     1  UNL1       -0.2700
     14 C          59.7324   90.5369   11.2354 C.3     1  UNL1        0.0897
     15 C          60.4285   88.9839    9.2723 C.3     1  UNL1        0.0897
     16 C          63.8737   90.8104   14.6290 C.3     1  UNL1        0.0730
     17 C          65.2353   91.4369   14.6878 C.ar    1  UNL1        0.0825
     18 C          65.6531   92.2104   15.9032 C.ar    1  UNL1        0.1139
     19 N          67.0147   92.8370   15.9620 N.ar    1  UNL1       -0.2394
     20 C          67.9585   92.6901   14.8055 C.ar    1  UNL1        0.1195
     21 C          67.5408   91.9166   13.5901 C.ar    1  UNL1        0.1191
     22 N          66.1792   91.2900   13.5313 N.ar    1  UNL1       -0.2446
@<TRIPOS>BOND
     1     1     2    1
     2     2     3   ar
     3     3     4   ar
     4     4     5   ar
     5     5     6   ar
     6     6     7   ar
     7     6     8    1
     8     8     9    1
     9     9    11    1
    10    11    12    1
    11    12    13    1
    12    13    14    1
    13    13    15    1
    14     9    10    2
    15    10    16    1
    16    16    17    1
    17    17    18   ar
    18    18    19   ar
    19    19    20   ar
    20    20    21   ar
    21    21    22   ar
    22     7     2   ar
    23    22    17   ar
    24    10     5    1
