@<TRIPOS>MOLECULE
*****
 23 25 0 0 0
SMALL
GASTEIGER

@<TRIPOS>ATOM
      1 N          63.5213   87.4555   13.0978 N.ar    1  UNL1       -0.2341
      2 N          64.1594   88.1408   14.2697 N.ar    1  UNL1       -0.1617
      3 C          64.1597   89.6163   14.0000 C.ar    1  UNL1        0.1696
      4 C          63.5218   89.8430   12.6614 C.ar    1  UNL1        0.0148
      5 C          63.1272   88.5076   12.1039 C.ar    1  UNL1        0.0579
      6 C          62.4602   88.4220   10.7631 C.3     1  UNL1        0.0456
      7 C          62.1876   89.6720    9.9800 C.3     1  UNL1        0.0066
      8 C          62.5822   91.0074   10.5375 C.3     1  UNL1        0.0052
      9 C          63.2493   91.0929   11.8783 C.3     1  UNL1        0.0291
     10 C          62.8985   83.0220   12.6437 C.ar    1  UNL1       -0.0147
     11 C          63.5284   83.5670   13.8912 C.ar    1  UNL1       -0.0023
     12 C          63.7360   85.0448   14.0426 C.ar    1  UNL1        0.0188
     13 C          63.3137   85.9777   12.9464 C.ar    1  UNL1        0.0824
     14 C          62.6838   85.4327   11.6990 C.ar    1  UNL1        0.0188
     15 C          62.4762   83.9548   11.5477 C.ar    1  UNL1       -0.0023
     16 C          62.6909   81.5442   12.4924 C.3     1  UNL1        0.0908
     17 C          60.8018   80.8131   14.1193 C.3     1  UNL1        0.0726
     18 C          62.2282   80.7281   13.6628 C.2     1  UNL1        0.1555
     19 O          63.1917   79.8271   14.3767 O.2     1  UNL1       -0.2957
     20 C          64.7025   90.6787   14.9092 C.3     1  UNL1        0.4362
     21 F          65.2455   91.7411   15.8184 F       1  UNL1       -0.1644
     22 F          65.8424   90.9075   13.9613 F       1  UNL1       -0.1644
     23 F          63.5628   90.4499   15.8571 F       1  UNL1       -0.1644
@<TRIPOS>BOND
     1    17    18    1
     2    18    19    2
     3    18    16    1
     4    16    10    1
     5    10    11   ar
     6    11    12   ar
     7    12    13   ar
     8    13     1    1
     9     1     2   ar
    10     2     3   ar
    11     3    20    1
    12    20    21    1
    13    20    22    1
    14    20    23    1
    15     3     4   ar
    16     4     5   ar
    17     5     6    1
    18     6     7    1
    19     7     8    1
    20     8     9    1
    21    13    14   ar
    22    14    15   ar
    23    15    10   ar
    24     5     1   ar
    25     9     4    1
@<TRIPOS>MOLECULE
*****
 23 25 0 0 0
SMALL
GASTEIGER

@<TRIPOS>ATOM
      1 N          62.7659   86.9966   11.9580 N.ar    1  UNL1       -0.2341
      2 N          63.4883   88.1566   12.5765 N.ar    1  UNL1       -0.1617
      3 C          63.0243   89.4090   11.8936 C.ar    1  UNL1        0.1696
      4 C          62.0152   89.0230   10.8530 C.ar    1  UNL1        0.0148
      5 C          61.8555   87.5320   10.8928 C.ar    1  UNL1        0.0579
      6 C          60.9018   86.8546    9.9540 C.3     1  UNL1        0.0456
      7 C          60.1077   87.6681    8.9754 C.3     1  UNL1        0.0066
      8 C          60.2675   89.1590    8.9356 C.3     1  UNL1        0.0052
      9 C          61.2212   89.8365    9.8744 C.3     1  UNL1        0.0291
     10 C          63.2457   82.6699   13.0978 C.ar    1  UNL1       -0.0147
     11 C          63.4664   83.7440   14.1213 C.ar    1  UNL1       -0.0023
     12 C          63.3064   85.1862   13.7414 C.ar    1  UNL1        0.0188
     13 C          62.9258   85.5544   12.3379 C.ar    1  UNL1        0.0824
     14 C          62.7052   84.4803   11.3145 C.ar    1  UNL1        0.0188
     15 C          62.8651   83.0380   11.6944 C.ar    1  UNL1       -0.0023
     16 C          63.4056   81.2276   13.4777 C.3     1  UNL1        0.0908
     17 C          60.9366   80.7270   14.1128 C.3     1  UNL1        0.0726
     18 C          62.2191   80.3103   13.4557 C.2     1  UNL1        0.1555
     19 O          62.3148   78.9763   12.7765 O.2     1  UNL1       -0.2957
     20 C          63.4880   90.8027   12.1978 C.3     1  UNL1        0.4362
     21 F          63.9517   92.1964   12.5021 F       1  UNL1       -0.1644
     22 F          63.0413   90.6408   13.6206 F       1  UNL1       -0.1644
     23 F          63.9348   90.9646   10.7752 F       1  UNL1       -0.1644
@<TRIPOS>BOND
     1    17    18    1
     2    18    19    2
     3    18    16    1
     4    16    10    1
     5    10    11   ar
     6    11    12   ar
     7    12    13   ar
     8    13     1    1
     9     1     2   ar
    10     2     3   ar
    11     3    20    1
    12    20    21    1
    13    20    22    1
    14    20    23    1
    15     3     4   ar
    16     4     5   ar
    17     5     6    1
    18     6     7    1
    19     7     8    1
    20     8     9    1
    21    13    14   ar
    22    14    15   ar
    23    15    10   ar
    24     5     1   ar
    25     9     4    1
@<TRIPOS>MOLECULE
*****
 23 25 0 0 0
SMALL
GASTEIGER

@<TRIPOS>ATOM
      1 N          63.1242   87.9670   12.2601 N.ar    1  UNL1       -0.2341
      2 N          63.3399   86.5262   12.6173 N.ar    1  UNL1       -0.1617
      3 C          62.5145   85.6892   11.6857 C.ar    1  UNL1        0.1696
      4 C          61.7887   86.6126   10.7527 C.ar    1  UNL1        0.0148
      5 C          62.1655   88.0204   11.1077 C.ar    1  UNL1        0.0579
      6 C          61.5871   89.1691   10.3358 C.3     1  UNL1        0.0456
      7 C          60.6317   88.9099    9.2088 C.3     1  UNL1        0.0066
      8 C          60.2548   87.5021    8.8538 C.3     1  UNL1        0.0052
      9 C          60.8333   86.3535    9.6257 C.3     1  UNL1        0.0291
     10 C          65.0205   91.5078   14.2893 C.ar    1  UNL1       -0.0147
     11 C          64.4304   91.6563   12.9183 C.ar    1  UNL1       -0.0023
     12 C          63.7983   90.4761   12.2419 C.ar    1  UNL1        0.0188
     13 C          63.7563   89.1472   12.9365 C.ar    1  UNL1        0.0824
     14 C          64.3464   88.9987   14.3075 C.ar    1  UNL1        0.0188
     15 C          64.9785   90.1790   14.9839 C.ar    1  UNL1       -0.0023
     16 C          65.6526   92.6880   14.9658 C.3     1  UNL1        0.0908
     17 C          68.0093   93.3296   15.8513 C.3     1  UNL1        0.0726
     18 C          67.0922   93.0192   14.7056 C.2     1  UNL1        0.1555
     19 O          67.6149   93.0400   13.2998 O.2     1  UNL1       -0.2957
     20 C          62.4297   84.1916   11.6868 C.3     1  UNL1        0.4362
     21 F          62.3448   82.6939   11.6880 F       1  UNL1       -0.1644
     22 F          61.9844   84.2179   13.1190 F       1  UNL1       -0.1644
     23 F          62.8749   84.1653   10.2547 F       1  UNL1       -0.1644
@<TRIPOS>BOND
     1    17    18    1
     2    18    19    2
     3    18    16    1
     4    16    10    1
     5    10    11   ar
     6    11    12   ar
     7    12    13   ar
     8    13     1    1
     9     1     2   ar
    10     2     3   ar
    11     3    20    1
    12    20    21    1
    13    20    22    1
    14    20    23    1
    15     3     4   ar
    16     4     5   ar
    17     5     6    1
    18     6     7    1
    19     7     8    1
    20     8     9    1
    21    13    14   ar
    22    14    15   ar
    23    15    10   ar
    24     5     1   ar
    25     9     4    1
@<TRIPOS>MOLECULE
*****
 23 25 0 0 0
SMALL
GASTEIGER

@<TRIPOS>ATOM
      1 N          63.0182   87.5434   11.9097 N.ar    1  UNL1       -0.2341
      2 N          62.3856   87.7283   10.5623 N.ar    1  UNL1       -0.1617
      3 C          62.0390   86.3722   10.0230 C.ar    1  UNL1        0.1696
      4 C          62.4574   85.3492   11.0370 C.ar    1  UNL1        0.0148
      5 C          63.0626   86.0730   12.2031 C.ar    1  UNL1        0.0579
      6 C          63.5759   85.2997   13.3815 C.3     1  UNL1        0.0456
      7 C          63.4841   83.8026   13.3937 C.3     1  UNL1        0.0066
      8 C          62.8788   83.0788   12.2276 C.3     1  UNL1        0.0052
      9 C          62.3655   83.8521   11.0493 C.3     1  UNL1        0.0291
     10 C          64.5195   90.8237   14.5997 C.ar    1  UNL1       -0.0147
     11 C          64.6285   89.3912   15.0311 C.ar    1  UNL1       -0.0023
     12 C          64.1281   88.2978   14.1344 C.ar    1  UNL1        0.0188
     13 C          63.5186   88.6368   12.8063 C.ar    1  UNL1        0.0824
     14 C          63.4097   90.0693   12.3750 C.ar    1  UNL1        0.0188
     15 C          63.9101   91.1627   13.2717 C.ar    1  UNL1       -0.0023
     16 C          65.0199   91.9172   15.4963 C.3     1  UNL1        0.0908
     17 C          67.5871   92.2605   15.7003 C.3     1  UNL1        0.0726
     18 C          66.2620   92.6755   15.1329 C.2     1  UNL1        0.1555
     19 O          66.1791   93.8488   14.2020 O.2     1  UNL1       -0.2957
     20 C          61.3882   86.0888    8.7015 C.3     1  UNL1        0.4362
     21 F          60.7375   85.8054    7.3800 F       1  UNL1       -0.1644
     22 F          62.7266   85.7498    8.1151 F       1  UNL1       -0.1644
     23 F          60.0499   86.4279    9.2878 F       1  UNL1       -0.1644
@<TRIPOS>BOND
     1    17    18    1
     2    18    19    2
     3    18    16    1
     4    16    10    1
     5    10    11   ar
     6    11    12   ar
     7    12    13   ar
     8    13     1    1
     9     1     2   ar
    10     2     3   ar
    11     3    20    1
    12    20    21    1
    13    20    22    1
    14    20    23    1
    15     3     4   ar
    16     4     5   ar
    17     5     6    1
    18     6     7    1
    19     7     8    1
    20     8     9    1
    21    13    14   ar
    22    14    15   ar
    23    15    10   ar
    24     5     1   ar
    25     9     4    1
@<TRIPOS>MOLECULE
*****
 23 25 0 0 0
SMALL
GASTEIGER

@<TRIPOS>ATOM
      1 N          63.0070   89.3748   11.7593 N.ar    1  UNL1       -0.2341
      2 N          62.0979   89.7766   10.6360 N.ar    1  UNL1       -0.1617
      3 C          61.4120   88.5421   10.1306 C.ar    1  UNL1        0.1696
      4 C          61.8972   87.3773   10.9417 C.ar    1  UNL1        0.0148
      5 C          62.8830   87.8919   11.9483 C.ar    1  UNL1        0.0579
      6 C          63.5403   86.9438   12.9069 C.3     1  UNL1        0.0456
      7 C          63.2119   85.4810   12.8588 C.3     1  UNL1        0.0066
      8 C          62.2261   84.9664   11.8522 C.3     1  UNL1        0.0052
      9 C          61.5687   85.9145   10.8936 C.3     1  UNL1        0.0291
     10 C          65.6437   92.1337   14.1441 C.ar    1  UNL1       -0.0147
     11 C          65.3028   92.4657   12.7216 C.ar    1  UNL1       -0.0023
     12 C          64.4240   91.5461   11.9266 C.ar    1  UNL1        0.0188
     13 C          63.8859   90.2944   12.5543 C.ar    1  UNL1        0.0824
     14 C          64.2268   89.9624   13.9767 C.ar    1  UNL1        0.0188
     15 C          65.1057   90.8820   14.7716 C.ar    1  UNL1       -0.0023
     16 C          66.5226   93.0533   14.9390 C.3     1  UNL1        0.0908
     17 C          68.8847   93.5612   15.8944 C.3     1  UNL1        0.0726
     18 C          68.0147   92.9281   14.8492 C.2     1  UNL1        0.1555
     19 O          68.6368   92.1697   13.7144 O.2     1  UNL1       -0.2957
     20 C          60.4157   88.4827    9.0108 C.3     1  UNL1        0.4362
     21 F          59.4194   88.4234    7.8910 F       1  UNL1       -0.1644
     22 F          59.6574   89.6218    9.6251 F       1  UNL1       -0.1644
     23 F          61.1740   87.3437    8.3965 F       1  UNL1       -0.1644
@<TRIPOS>BOND
     1    17    18    1
     2    18    19    2
     3    18    16    1
     4    16    10    1
     5    10    11   ar
     6    11    12   ar
     7    12    13   ar
     8    13     1    1
     9     1     2   ar
    10     2     3   ar
    11     3    20    1
    12    20    21    1
    13    20    22    1
    14    20    23    1
    15     3     4   ar
    16     4     5   ar
    17     5     6    1
    18     6     7    1
    19     7     8    1
    20     8     9    1
    21    13    14   ar
    22    14    15   ar
    23    15    10   ar
    24     5     1   ar
    25     9     4    1
@<TRIPOS>MOLECULE
*****
 23 25 0 0 0
SMALL
GASTEIGER

@<TRIPOS>ATOM
      1 N          61.7830   86.5337   10.2294 N.ar    1  UNL1       -0.2341
      2 N          60.7939   86.5224    9.1018 N.ar    1  UNL1       -0.1617
      3 C          60.4093   87.9423    8.8084 C.ar    1  UNL1        0.1696
      4 C          61.1608   88.8311    9.7546 C.ar    1  UNL1        0.0148
      5 C          62.0098   87.9606   10.6328 C.ar    1  UNL1        0.0579
      6 C          62.8797   88.5795   11.6864 C.3     1  UNL1        0.0456
      7 C          62.9006   90.0691   11.8618 C.3     1  UNL1        0.0066
      8 C          62.0516   90.9396   10.9835 C.3     1  UNL1        0.0052
      9 C          61.1817   90.3206    9.9299 C.3     1  UNL1        0.0291
     10 C          63.7287   82.9213   12.0775 C.ar    1  UNL1       -0.0147
     11 C          63.8195   83.1473   10.5974 C.ar    1  UNL1       -0.0023
     12 C          63.1709   84.3514    9.9813 C.ar    1  UNL1        0.0188
     13 C          62.4316   85.3296   10.8454 C.ar    1  UNL1        0.0824
     14 C          62.3408   85.1036   12.3255 C.ar    1  UNL1        0.0188
     15 C          62.9893   83.8994   12.9415 C.ar    1  UNL1       -0.0023
     16 C          64.3772   81.7172   12.6935 C.3     1  UNL1        0.0908
     17 C          62.1133   80.5191   13.1287 C.3     1  UNL1        0.0726
     18 C          63.5536   80.7432   13.4828 C.2     1  UNL1        0.1555
     19 O          64.1702   79.9933   14.6262 O.2     1  UNL1       -0.2957
     20 C          59.4430   88.3941    7.7539 C.3     1  UNL1        0.4362
     21 F          58.4765   88.8458    6.6993 F       1  UNL1       -0.1644
     22 F          58.5682   87.2118    8.0490 F       1  UNL1       -0.1644
     23 F          60.3176   89.5763    7.4587 F       1  UNL1       -0.1644
@<TRIPOS>BOND
     1    17    18    1
     2    18    19    2
     3    18    16    1
     4    16    10    1
     5    10    11   ar
     6    11    12   ar
     7    12    13   ar
     8    13     1    1
     9     1     2   ar
    10     2     3   ar
    11     3    20    1
    12    20    21    1
    13    20    22    1
    14    20    23    1
    15     3     4   ar
    16     4     5   ar
    17     5     6    1
    18     6     7    1
    19     7     8    1
    20     8     9    1
    21    13    14   ar
    22    14    15   ar
    23    15    10   ar
    24     5     1   ar
    25     9     4    1
@<TRIPOS>MOLECULE
*****
 23 25 0 0 0
SMALL
GASTEIGER

@<TRIPOS>ATOM
      1 N          62.3781   84.7153   11.9591 N.ar    1  UNL1       -0.2341
      2 N          62.1127   83.2454   11.8210 N.ar    1  UNL1       -0.1617
      3 C          62.7894   82.5432   12.9608 C.ar    1  UNL1        0.1696
      4 C          63.4728   83.5791   13.8033 C.ar    1  UNL1        0.0148
      5 C          63.2186   84.9215   13.1843 C.ar    1  UNL1        0.0579
      6 C          63.7854   86.1583   13.8161 C.3     1  UNL1        0.0456
      7 C          64.6064   86.0526   15.0670 C.3     1  UNL1        0.0066
      8 C          64.8606   84.7101   15.6861 C.3     1  UNL1        0.0052
      9 C          64.2938   83.4734   15.0542 C.3     1  UNL1        0.0291
     10 C          60.9101   87.9401    9.1850 C.ar    1  UNL1       -0.0147
     11 C          61.8021   86.8522    8.6648 C.ar    1  UNL1       -0.0023
     12 C          62.2915   85.7772    9.5895 C.ar    1  UNL1        0.0188
     13 C          61.8887   85.7902   11.0345 C.ar    1  UNL1        0.0824
     14 C          60.9967   86.8782   11.5545 C.ar    1  UNL1        0.0188
     15 C          60.5074   87.9531   10.6299 C.ar    1  UNL1       -0.0023
     16 C          60.4207   89.0151    8.2603 C.3     1  UNL1        0.0908
     17 C          59.0070   89.6837    6.1856 C.3     1  UNL1        0.0726
     18 C          59.2990   88.7301    7.3061 C.2     1  UNL1        0.1555
     19 O          58.4693   87.4916    7.4724 O.2     1  UNL1       -0.2957
     20 C          62.7835   81.0647   13.2137 C.3     1  UNL1        0.4362
     21 F          62.7776   79.5862   13.4667 F       1  UNL1       -0.1644
     22 F          61.2930   81.0988   13.3786 F       1  UNL1       -0.1644
     23 F          64.2740   81.0306   13.0489 F       1  UNL1       -0.1644
@<TRIPOS>BOND
     1    17    18    1
     2    18    19    2
     3    18    16    1
     4    16    10    1
     5    10    11   ar
     6    11    12   ar
     7    12    13   ar
     8    13     1    1
     9     1     2   ar
    10     2     3   ar
    11     3    20    1
    12    20    21    1
    13    20    22    1
    14    20    23    1
    15     3     4   ar
    16     4     5   ar
    17     5     6    1
    18     6     7    1
    19     7     8    1
    20     8     9    1
    21    13    14   ar
    22    14    15   ar
    23    15    10   ar
    24     5     1   ar
    25     9     4    1
@<TRIPOS>MOLECULE
*****
 23 25 0 0 0
SMALL
GASTEIGER

@<TRIPOS>ATOM
      1 N          61.3236   86.7292   10.9070 N.ar    1  UNL1       -0.2341
      2 N          61.0377   87.9634   11.7101 N.ar    1  UNL1       -0.1617
      3 C          60.2296   88.8951   10.8562 C.ar    1  UNL1        0.1696
      4 C          60.0162   88.2367    9.5254 C.ar    1  UNL1        0.0148
      5 C          60.6923   86.8981    9.5568 C.ar    1  UNL1        0.0579
      6 C          60.6458   86.0059    8.3519 C.3     1  UNL1        0.0456
      7 C          59.9231   86.4523    7.1156 C.3     1  UNL1        0.0066
      8 C          59.2470   87.7909    7.0843 C.3     1  UNL1        0.0052
      9 C          59.2935   88.6831    8.2892 C.3     1  UNL1        0.0291
     10 C          63.6645   83.1485   12.3032 C.ar    1  UNL1       -0.0147
     11 C          62.9606   84.0198   13.3008 C.ar    1  UNL1       -0.0023
     12 C          62.1803   85.2134   12.8354 C.ar    1  UNL1        0.0188
     13 C          62.1039   85.5357   11.3723 C.ar    1  UNL1        0.0824
     14 C          62.8079   84.6643   10.3748 C.ar    1  UNL1        0.0188
     15 C          63.5882   83.4708   10.8402 C.ar    1  UNL1       -0.0023
     16 C          64.4448   81.9550   12.7685 C.3     1  UNL1        0.0908
     17 C          62.4262   80.3225   12.8689 C.3     1  UNL1        0.0726
     18 C          63.7369   80.8029   13.4177 C.2     1  UNL1        0.1555
     19 O          64.3398   80.1311   14.6158 O.2     1  UNL1       -0.2957
     20 C          59.7238   90.2477   11.2619 C.3     1  UNL1        0.4362
     21 F          59.2178   91.6003   11.6676 F       1  UNL1       -0.1644
     22 F          58.7323   89.6006   12.1830 F       1  UNL1       -0.1644
     23 F          60.7151   90.8947   10.3408 F       1  UNL1       -0.1644
@<TRIPOS>BOND
     1    17    18    1
     2    18    19    2
     3    18    16    1
     4    16    10    1
     5    10    11   ar
     6    11    12   ar
     7    12    13   ar
     8    13     1    1
     9     1     2   ar
    10     2     3   ar
    11     3    20    1
    12    20    21    1
    13    20    22    1
    14    20    23    1
    15     3     4   ar
    16     4     5   ar
    17     5     6    1
    18     6     7    1
    19     7     8    1
    20     8     9    1
    21    13    14   ar
    22    14    15   ar
    23    15    10   ar
    24     5     1   ar
    25     9     4    1
@<TRIPOS>MOLECULE
*****
 23 25 0 0 0
SMALL
GASTEIGER

@<TRIPOS>ATOM
      1 N          61.9688   86.7158   11.1026 N.ar    1  UNL1       -0.2341
      2 N          62.1346   85.2636   11.4396 N.ar    1  UNL1       -0.1617
      3 C          63.0147   85.1665   12.6505 C.ar    1  UNL1        0.1696
      4 C          63.3927   86.5586   13.0617 C.ar    1  UNL1        0.0148
      5 C          62.7463   87.5161   12.1050 C.ar    1  UNL1        0.0579
      6 C          62.9492   88.9931   12.2704 C.3     1  UNL1        0.0456
      7 C          63.7985   89.5125   13.3923 C.3     1  UNL1        0.0066
      8 C          64.4449   88.5549   14.3490 C.3     1  UNL1        0.0052
      9 C          64.2420   87.0780   14.1837 C.3     1  UNL1        0.0291
     10 C          59.5613   88.3794    7.6839 C.ar    1  UNL1       -0.0147
     11 C          59.7684   86.8987    7.8047 C.ar    1  UNL1       -0.0023
     12 C          60.5709   86.3441    8.9443 C.ar    1  UNL1        0.0188
     13 C          61.1663   87.2704    9.9630 C.ar    1  UNL1        0.0824
     14 C          60.9591   88.7510    9.8422 C.ar    1  UNL1        0.0188
     15 C          60.1566   89.3055    8.7027 C.ar    1  UNL1       -0.0023
     16 C          58.7588   88.9339    6.5444 C.3     1  UNL1        0.0908
     17 C          58.2257   91.2212    5.4334 C.3     1  UNL1        0.0726
     18 C          59.2201   90.1725    5.8351 C.2     1  UNL1        0.1555
     19 O          60.6759   90.3624    5.5275 O.2     1  UNL1       -0.2957
     20 C          63.4417   83.8996   13.3306 C.3     1  UNL1        0.4362
     21 F          63.8687   82.6327   14.0109 F       1  UNL1       -0.1644
     22 F          62.1949   83.9268   14.1642 F       1  UNL1       -0.1644
     23 F          64.6884   83.8723   12.4971 F       1  UNL1       -0.1644
@<TRIPOS>BOND
     1    17    18    1
     2    18    19    2
     3    18    16    1
     4    16    10    1
     5    10    11   ar
     6    11    12   ar
     7    12    13   ar
     8    13     1    1
     9     1     2   ar
    10     2     3   ar
    11     3    20    1
    12    20    21    1
    13    20    22    1
    14    20    23    1
    15     3     4   ar
    16     4     5   ar
    17     5     6    1
    18     6     7    1
    19     7     8    1
    20     8     9    1
    21    13    14   ar
    22    14    15   ar
    23    15    10   ar
    24     5     1   ar
    25     9     4    1
