@<TRIPOS>MOLECULE
*****
 43 46 0 0 0
SMALL
GASTEIGER

@<TRIPOS>ATOM
      1 C          61.8666   88.9674    9.5893 C.3     1  UNL1        0.1678
      2 C          62.2799   89.9769   10.6190 C.2     1  UNL1        0.2492
      3 O          62.0396   91.4123   10.2563 O.2     1  UNL1       -0.2727
      4 N          62.9017   89.7405   11.9634 N.am    1  UNL1       -0.2518
      5 C          63.2639   88.4365   12.6103 C.ar    1  UNL1        0.0679
      6 C          63.8677   88.6468   13.9671 C.ar    1  UNL1        0.0169
      7 C          64.3012   87.4673   14.7861 C.ar    1  UNL1        0.0116
      8 C          64.1310   86.0775   14.2482 C.ar    1  UNL1        0.0698
      9 C          63.5272   85.8671   12.8913 C.ar    1  UNL1        0.0264
     10 C          63.0936   87.0466   12.0724 C.ar    1  UNL1        0.0682
     11 N          62.5192   86.6176   10.7548 N.am    1  UNL1       -0.2555
     12 C          62.4865   85.1381   10.5099 C.2     1  UNL1        0.2535
     13 O          61.9316   84.6029    9.2231 O.2     1  UNL1       -0.2726
     14 C          61.9731   87.4724    9.6497 C.3     1  UNL1        0.1067
     15 C          61.4666   86.7347    8.4459 C.3     1  UNL1        0.0242
     16 C          59.8416   89.2224    7.9818 C.2     1  UNL1        0.2371
     17 O          59.0144   88.3581    8.8868 O.2     1  UNL1       -0.2737
     18 N          61.2677   89.5270    8.3331 N.am    1  UNL1       -0.2959
     19 H          61.8106   90.0942    7.7391 H       1  UNL1        0.1499
     20 C          59.2427   89.7819    6.7255 C.3     1  UNL1        0.1316
     21 C          57.7976   89.5338    6.4085 C.3     1  UNL1        0.0270
     22 C          59.4454   91.5761    4.8574 C.3     1  UNL1        0.0862
     23 N          60.0886   90.5895    5.7864 N.3     1  UNL1       -0.2902
     24 H          60.7487   91.1134    6.3611 H       1  UNL1        0.1237
     25 C          64.5646   84.8979   15.0672 C.1     1  UNL1        0.1005
     26 N          64.9981   83.7184   15.8862 N.1     1  UNL1       -0.1908
     27 C          63.2010   90.9710   12.7674 C.3     1  UNL1        0.1245
     28 C          64.5110   91.6806   12.5931 C.ar    1  UNL1       -0.0059
     29 C          65.0008   92.0237   11.2175 C.ar    1  UNL1       -0.0242
     30 C          64.7116   91.9130   10.4830 C.3     1  UNL1        0.0308
     31 C          66.3108   92.7334   11.0431 C.ar    1  UNL1       -0.0045
     32 C          67.1310   93.0998   12.2444 C.ar    1  UNL1       -0.0003
     33 C          66.6411   92.7567   13.6201 C.ar    1  UNL1       -0.0003
     34 C          67.4613   93.1232   14.8214 C.ar    1  UNL1       -0.0000
     35 C          66.9714   92.7800   16.1969 C.ar    1  UNL1       -0.0000
     36 C          65.6614   92.0704   16.3713 C.ar    1  UNL1       -0.0000
     37 C          64.8413   91.7040   15.1700 C.ar    1  UNL1       -0.0003
     38 C          65.3311   92.0471   13.7944 C.ar    1  UNL1       -0.0027
     39 C          63.0086   84.1937   11.5518 C.3     1  UNL1        0.2357
     40 S          63.3150   82.7710   11.1884 S.O2    1  UNL1        0.0007
     41 C          63.6215   81.3484   10.8249 C.3     1  UNL1        0.1766
     42 O          62.1142   82.3145   11.9628 O.2     1  UNL1       -0.1725
     43 O          64.5158   83.2275   10.4140 O.2     1  UNL1       -0.1725
@<TRIPOS>BOND
     1    22    23    1
     2    23    20    1
     3    20    21    1
     4    20    16    1
     5    16    17    2
     6    16    18   am
     7     1    18    1
     8     1     2    1
     9     2     3    2
    10     2     4   am
    11     4    27    1
    12    27    28    1
    13    28    29   ar
    14    29    30    1
    15    29    31   ar
    16    31    32   ar
    17    32    33   ar
    18    33    34   ar
    19    34    35   ar
    20    35    36   ar
    21    36    37   ar
    22    37    38   ar
    23     4     5    1
    24     5     6   ar
    25     6     7   ar
    26     7     8   ar
    27     8    25    1
    28    25    26    3
    29     8     9   ar
    30     9    10   ar
    31    10    11    1
    32    11    12   am
    33    12    13    2
    34    12    39    1
    35    39    40    1
    36    40    41    1
    37    40    42    2
    38    40    43    2
    39    11    14    1
    40    14    15    1
    41    14     1    1
    42    38    28   ar
    43    10     5   ar
    44    38    33   ar
    45    23    24    1
    46    18    19    1
@<TRIPOS>MOLECULE
*****
 43 46 0 0 0
SMALL
GASTEIGER

@<TRIPOS>ATOM
      1 C          61.8281   88.7341    9.7493 C.3     1  UNL1        0.1678
      2 C          62.0411   89.6619   10.9086 C.2     1  UNL1        0.2492
      3 O          61.6736   91.0965   10.6702 O.2     1  UNL1       -0.2727
      4 N          62.5729   89.3447   12.2748 N.am    1  UNL1       -0.2518
      5 C          63.0231   88.0214   12.8192 C.ar    1  UNL1        0.0679
      6 C          63.4866   88.1427   14.2406 C.ar    1  UNL1        0.0169
      7 C          63.9796   86.9310   14.9746 C.ar    1  UNL1        0.0116
      8 C          64.0092   85.5982   14.2872 C.ar    1  UNL1        0.0698
      9 C          63.5457   85.4769   12.8658 C.ar    1  UNL1        0.0264
     10 C          63.0527   86.6885   12.1318 C.ar    1  UNL1        0.0682
     11 N          62.6394   86.3498   10.7302 N.am    1  UNL1       -0.2555
     12 C          62.7911   84.9102   10.3370 C.2     1  UNL1        0.2535
     13 O          62.4064   84.4651    8.9571 O.2     1  UNL1       -0.2726
     14 C          62.0944   87.2601    9.6699 C.3     1  UNL1        0.1067
     15 C          61.7732   86.6105    8.3566 C.3     1  UNL1        0.0242
     16 C          59.8836   89.0361    8.0529 C.2     1  UNL1        0.2371
     17 O          59.0436   88.0788    8.8455 O.2     1  UNL1       -0.2737
     18 N          61.2759   89.3637    8.5049 N.am    1  UNL1       -0.2959
     19 H          61.8272   89.9919    7.9847 H       1  UNL1        0.1499
     20 C          59.3314   89.6656    6.8085 C.3     1  UNL1        0.1316
     21 C          57.8754   89.5214    6.4776 C.3     1  UNL1        0.0270
     22 C          59.6512   91.3778    4.8807 C.3     1  UNL1        0.0862
     23 N          60.2350   90.4394    5.8949 N.3     1  UNL1       -0.2902
     24 H          60.8501   90.9945    6.4899 H       1  UNL1        0.1237
     25 C          64.5023   84.3865   15.0213 C.1     1  UNL1        0.1005
     26 N          64.9953   83.1748   15.7553 N.1     1  UNL1       -0.1908
     27 C          62.6669   90.5040   13.2219 C.3     1  UNL1        0.1245
     28 C          64.0095   91.0518   13.6061 C.ar    1  UNL1       -0.0059
     29 C          64.4665   90.9841   15.0332 C.ar    1  UNL1       -0.0242
     30 C          64.1436   90.7026   15.7054 C.3     1  UNL1        0.0308
     31 C          65.8091   91.5318   15.4175 C.ar    1  UNL1       -0.0045
     32 C          66.6946   92.1471   14.3746 C.ar    1  UNL1       -0.0003
     33 C          66.2375   92.2147   12.9475 C.ar    1  UNL1       -0.0003
     34 C          67.1229   92.8299   11.9047 C.ar    1  UNL1       -0.0000
     35 C          66.6658   92.8975   10.4777 C.ar    1  UNL1       -0.0000
     36 C          65.3232   92.3498   10.0934 C.ar    1  UNL1       -0.0000
     37 C          64.4378   91.7346   11.1363 C.ar    1  UNL1       -0.0003
     38 C          64.8949   91.6670   12.5633 C.ar    1  UNL1       -0.0027
     39 C          63.3276   83.9157   11.3235 C.3     1  UNL1        0.2357
     40 S          63.3885   82.4607   10.9640 S.O2    1  UNL1        0.0007
     41 C          63.4495   81.0058   10.6044 C.3     1  UNL1        0.1766
     42 O          62.1840   82.1990   11.8187 O.2     1  UNL1       -0.1725
     43 O          64.5930   82.7224   10.1092 O.2     1  UNL1       -0.1725
@<TRIPOS>BOND
     1    22    23    1
     2    23    20    1
     3    20    21    1
     4    20    16    1
     5    16    17    2
     6    16    18   am
     7     1    18    1
     8     1     2    1
     9     2     3    2
    10     2     4   am
    11     4    27    1
    12    27    28    1
    13    28    29   ar
    14    29    30    1
    15    29    31   ar
    16    31    32   ar
    17    32    33   ar
    18    33    34   ar
    19    34    35   ar
    20    35    36   ar
    21    36    37   ar
    22    37    38   ar
    23     4     5    1
    24     5     6   ar
    25     6     7   ar
    26     7     8   ar
    27     8    25    1
    28    25    26    3
    29     8     9   ar
    30     9    10   ar
    31    10    11    1
    32    11    12   am
    33    12    13    2
    34    12    39    1
    35    39    40    1
    36    40    41    1
    37    40    42    2
    38    40    43    2
    39    11    14    1
    40    14    15    1
    41    14     1    1
    42    38    28   ar
    43    10     5   ar
    44    38    33   ar
    45    23    24    1
    46    18    19    1
@<TRIPOS>MOLECULE
*****
 43 46 0 0 0
SMALL
GASTEIGER

@<TRIPOS>ATOM
      1 C          62.7874   88.5424   12.9955 C.3     1  UNL1        0.1678
      2 C          63.4123   87.1971   13.2186 C.2     1  UNL1        0.2492
      3 O          64.0843   87.0036   14.5455 O.2     1  UNL1       -0.2727
      4 N          63.4538   86.0197   12.2901 N.am    1  UNL1       -0.2518
      5 C          62.8809   85.8968   10.9093 C.ar    1  UNL1        0.0679
      6 C          63.1465   84.5413   10.3244 C.ar    1  UNL1        0.0169
      7 C          62.6560   84.2100    8.9462 C.ar    1  UNL1        0.0116
      8 C          61.8999   85.2341    8.1528 C.ar    1  UNL1        0.0698
      9 C          61.6344   86.5896    8.7376 C.ar    1  UNL1        0.0264
     10 C          62.1249   86.9210   10.1159 C.ar    1  UNL1        0.0682
     11 N          61.7550   88.3210   10.5074 N.am    1  UNL1       -0.2555
     12 C          60.9890   89.1027    9.4817 C.2     1  UNL1        0.2535
     13 O          60.5700   90.5133    9.7729 O.2     1  UNL1       -0.2726
     14 C          62.0499   89.0426   11.7889 C.3     1  UNL1        0.1067
     15 C          61.5397   90.4505   11.8753 C.3     1  UNL1        0.0242
     16 C          64.1069   90.4269   14.2028 C.2     1  UNL1        0.2371
     17 O          65.1668   90.3636   13.1431 O.2     1  UNL1       -0.2737
     18 N          62.9173   89.5163   14.1289 N.am    1  UNL1       -0.2959
     19 H          62.2217   89.5578   14.8244 H       1  UNL1        0.1499
     20 C          64.2368   91.4008   15.3362 C.3     1  UNL1        0.1316
     21 C          63.4268   91.2113   16.5844 C.3     1  UNL1        0.0270
     22 C          66.3778   92.6490   16.1159 C.3     1  UNL1        0.0862
     23 N          65.1767   92.5641   15.2214 N.3     1  UNL1       -0.2902
     24 H          65.5230   92.5693   14.2620 H       1  UNL1        0.1237
     25 C          61.4094   84.9028    6.7745 C.1     1  UNL1        0.1005
     26 N          60.9189   84.5714    5.3963 N.1     1  UNL1       -0.1908
     27 C          64.1620   84.8045   12.8114 C.3     1  UNL1        0.1245
     28 C          63.3711   83.6390   13.3273 C.ar    1  UNL1       -0.0059
     29 C          62.6859   83.7282   14.6587 C.ar    1  UNL1       -0.0242
     30 C          62.6308   84.2952   15.2163 C.3     1  UNL1        0.0308
     31 C          61.8949   82.5628   15.1746 C.ar    1  UNL1       -0.0045
     32 C          61.7892   81.3082   14.3592 C.ar    1  UNL1       -0.0003
     33 C          62.4745   81.2190   13.0279 C.ar    1  UNL1       -0.0003
     34 C          62.3688   79.9645   12.2124 C.ar    1  UNL1       -0.0000
     35 C          63.0540   79.8754   10.8811 C.ar    1  UNL1       -0.0000
     36 C          63.8450   81.0408   10.3651 C.ar    1  UNL1       -0.0000
     37 C          63.9506   82.2953   11.1806 C.ar    1  UNL1       -0.0003
     38 C          63.2654   82.3845   12.5119 C.ar    1  UNL1       -0.0027
     39 C          60.6421   88.4740    8.1647 C.3     1  UNL1        0.2357
     40 S          59.4759   88.9868    7.3729 S.O2    1  UNL1        0.0007
     41 C          58.3096   89.4995    6.5812 C.3     1  UNL1        0.1766
     42 O          60.3619   90.0144    6.7334 O.2     1  UNL1       -0.1725
     43 O          58.5899   87.9591    8.0124 O.2     1  UNL1       -0.1725
@<TRIPOS>BOND
     1    22    23    1
     2    23    20    1
     3    20    21    1
     4    20    16    1
     5    16    17    2
     6    16    18   am
     7     1    18    1
     8     1     2    1
     9     2     3    2
    10     2     4   am
    11     4    27    1
    12    27    28    1
    13    28    29   ar
    14    29    30    1
    15    29    31   ar
    16    31    32   ar
    17    32    33   ar
    18    33    34   ar
    19    34    35   ar
    20    35    36   ar
    21    36    37   ar
    22    37    38   ar
    23     4     5    1
    24     5     6   ar
    25     6     7   ar
    26     7     8   ar
    27     8    25    1
    28    25    26    3
    29     8     9   ar
    30     9    10   ar
    31    10    11    1
    32    11    12   am
    33    12    13    2
    34    12    39    1
    35    39    40    1
    36    40    41    1
    37    40    42    2
    38    40    43    2
    39    11    14    1
    40    14    15    1
    41    14     1    1
    42    38    28   ar
    43    10     5   ar
    44    38    33   ar
    45    23    24    1
    46    18    19    1
@<TRIPOS>MOLECULE
*****
 43 46 0 0 0
SMALL
GASTEIGER

@<TRIPOS>ATOM
      1 C          63.4907   86.8653   13.0922 C.3     1  UNL1        0.1678
      2 C          63.4783   88.3507   13.3012 C.2     1  UNL1        0.2492
      3 O          64.1761   88.8400   14.5355 O.2     1  UNL1       -0.2727
      4 N          62.8604   89.4112   12.4391 N.am    1  UNL1       -0.2518
      5 C          62.1022   89.2485   11.1551 C.ar    1  UNL1        0.0679
      6 C          61.6523   90.5727   10.6127 C.ar    1  UNL1        0.0169
      7 C          60.8749   90.6333    9.3313 C.ar    1  UNL1        0.0116
      8 C          60.5474   89.3697    8.5923 C.ar    1  UNL1        0.0698
      9 C          60.9973   88.0456    9.1346 C.ar    1  UNL1        0.0264
     10 C          61.7747   87.9850   10.4160 C.ar    1  UNL1        0.0682
     11 N          62.1245   86.5721   10.7785 N.am    1  UNL1       -0.2555
     12 C          61.6476   85.5181    9.8237 C.2     1  UNL1        0.2535
     13 O          61.9443   84.0726   10.0929 O.2     1  UNL1       -0.2726
     14 C          62.8882   86.0737   11.9695 C.3     1  UNL1        0.1067
     15 C          63.0740   84.5874   12.0482 C.3     1  UNL1        0.0242
     16 C          63.4160   85.1803   15.0683 C.2     1  UNL1        0.2371
     17 O          61.9241   85.0942   14.9385 O.2     1  UNL1       -0.2737
     18 N          64.1993   86.0658   14.1452 N.am    1  UNL1       -0.2959
     19 H          65.1785   86.1223   14.2303 H       1  UNL1        0.1499
     20 C          64.1246   84.3808   16.1212 C.3     1  UNL1        0.1316
     21 C          64.4000   84.9876   17.4651 C.3     1  UNL1        0.0270
     22 C          64.0105   82.2533   14.6344 C.3     1  UNL1        0.0862
     23 N          64.5578   82.9745   15.8304 N.3     1  UNL1       -0.2902
     24 H          65.5720   82.9950   15.7232 H       1  UNL1        0.1237
     25 C          59.7700   89.4303    7.3109 C.1     1  UNL1        0.1005
     26 N          58.9926   89.4910    6.0295 N.1     1  UNL1       -0.1908
     27 C          63.0219   90.8210   12.9253 C.3     1  UNL1        0.1245
     28 C          64.2852   91.5752   12.6329 C.ar    1  UNL1       -0.0059
     29 C          64.6579   91.8926   11.2151 C.ar    1  UNL1       -0.0242
     30 C          64.3203   91.7471   10.5078 C.3     1  UNL1        0.0308
     31 C          65.9212   92.6467   10.9226 C.ar    1  UNL1       -0.0045
     32 C          66.8117   93.0833   12.0479 C.ar    1  UNL1       -0.0003
     33 C          66.4389   92.7658   13.4658 C.ar    1  UNL1       -0.0003
     34 C          67.3294   93.2025   14.5912 C.ar    1  UNL1       -0.0000
     35 C          66.9566   92.8849   16.0089 C.ar    1  UNL1       -0.0000
     36 C          65.6933   92.1308   16.3014 C.ar    1  UNL1       -0.0000
     37 C          64.8029   91.6942   15.1760 C.ar    1  UNL1       -0.0003
     38 C          65.1756   92.0117   13.7583 C.ar    1  UNL1       -0.0027
     39 C          60.8739   85.9096    8.5996 C.3     1  UNL1        0.2357
     40 S          61.1711   85.2547    7.2833 S.O2    1  UNL1        0.0007
     41 C          61.4682   84.5999    5.9669 C.3     1  UNL1        0.1766
     42 O          62.6310   85.2270    7.6267 O.2     1  UNL1       -0.1725
     43 O          59.7112   85.2825    6.9399 O.2     1  UNL1       -0.1725
@<TRIPOS>BOND
     1    22    23    1
     2    23    20    1
     3    20    21    1
     4    20    16    1
     5    16    17    2
     6    16    18   am
     7     1    18    1
     8     1     2    1
     9     2     3    2
    10     2     4   am
    11     4    27    1
    12    27    28    1
    13    28    29   ar
    14    29    30    1
    15    29    31   ar
    16    31    32   ar
    17    32    33   ar
    18    33    34   ar
    19    34    35   ar
    20    35    36   ar
    21    36    37   ar
    22    37    38   ar
    23     4     5    1
    24     5     6   ar
    25     6     7   ar
    26     7     8   ar
    27     8    25    1
    28    25    26    3
    29     8     9   ar
    30     9    10   ar
    31    10    11    1
    32    11    12   am
    33    12    13    2
    34    12    39    1
    35    39    40    1
    36    40    41    1
    37    40    42    2
    38    40    43    2
    39    11    14    1
    40    14    15    1
    41    14     1    1
    42    38    28   ar
    43    10     5   ar
    44    38    33   ar
    45    23    24    1
    46    18    19    1
@<TRIPOS>MOLECULE
*****
 43 46 0 0 0
SMALL
GASTEIGER

@<TRIPOS>ATOM
      1 C          62.9157   89.9201   14.8678 C.3     1  UNL1        0.1678
      2 C          62.3174   89.7615   13.5015 C.2     1  UNL1        0.2492
      3 O          61.1557   88.8175   13.4052 O.2     1  UNL1       -0.2727
      4 N          62.7273   90.4221   12.2187 N.am    1  UNL1       -0.2518
      5 C          63.8366   91.4044   11.9853 C.ar    1  UNL1        0.0679
      6 C          63.9063   91.8206   10.5459 C.ar    1  UNL1        0.0169
      7 C          64.9495   92.8011   10.0984 C.ar    1  UNL1        0.0116
      8 C          65.9230   93.3654   11.0903 C.ar    1  UNL1        0.0698
      9 C          65.8533   92.9492   12.5296 C.ar    1  UNL1        0.0264
     10 C          64.8101   91.9687   12.9772 C.ar    1  UNL1        0.0682
     11 N          64.9147   91.6901   14.4474 N.am    1  UNL1       -0.2555
     12 C          66.0068   92.4197   15.1719 C.2     1  UNL1        0.2535
     13 O          66.1979   92.2124   16.6452 O.2     1  UNL1       -0.2726
     14 C          64.0716   90.7784   15.2888 C.3     1  UNL1        0.1067
     15 C          64.4321   90.7168   16.7435 C.3     1  UNL1        0.0242
     16 C          62.8400   87.7773   16.3350 C.2     1  UNL1        0.2371
     17 O          64.0494   87.2472   15.6233 O.2     1  UNL1       -0.2737
     18 N          62.2732   89.1137   15.9572 N.am    1  UNL1       -0.2959
     19 H          61.4794   89.4616   16.4243 H       1  UNL1        0.1499
     20 C          62.1974   86.9709   17.4244 C.3     1  UNL1        0.1316
     21 C          62.5412   87.2405   18.8594 C.3     1  UNL1        0.0270
     22 C          61.5207   84.9170   15.9845 C.3     1  UNL1        0.0862
     23 N          61.2111   85.8949   17.0789 N.3     1  UNL1       -0.2902
     24 H          61.0612   85.3493   17.9276 H       1  UNL1        0.1237
     25 C          66.9663   94.3459   10.6427 C.1     1  UNL1        0.1005
     26 N          68.0095   95.3264   10.1952 N.1     1  UNL1       -0.1908
     27 C          61.9212   90.0514   11.0092 C.3     1  UNL1        0.1245
     28 C          61.8326   88.6175   10.5775 C.ar    1  UNL1       -0.0059
     29 C          62.6407   87.5702   11.2846 C.ar    1  UNL1       -0.0242
     30 C          63.1565   87.5852   11.8922 C.3     1  UNL1        0.0308
     31 C          62.5522   86.1363   10.8529 C.ar    1  UNL1       -0.0045
     32 C          61.6556   85.7499    9.7141 C.ar    1  UNL1       -0.0003
     33 C          60.8475   86.7973    9.0070 C.ar    1  UNL1       -0.0003
     34 C          59.9509   86.4109    7.8682 C.ar    1  UNL1       -0.0000
     35 C          59.1429   87.4583    7.1612 C.ar    1  UNL1       -0.0000
     36 C          59.2313   88.8922    7.5929 C.ar    1  UNL1       -0.0000
     37 C          60.1280   89.2785    8.7316 C.ar    1  UNL1       -0.0003
     38 C          60.9360   88.2312    9.4387 C.ar    1  UNL1       -0.0027
     39 C          66.9078   93.3567   14.4233 C.3     1  UNL1        0.2357
     40 S          68.3461   93.4957   14.8256 S.O2    1  UNL1        0.0007
     41 C          69.7843   93.6349   15.2281 C.3     1  UNL1        0.1766
     42 O          68.7287   92.4522   13.8184 O.2     1  UNL1       -0.1725
     43 O          67.9633   94.5393   15.8329 O.2     1  UNL1       -0.1725
@<TRIPOS>BOND
     1    22    23    1
     2    23    20    1
     3    20    21    1
     4    20    16    1
     5    16    17    2
     6    16    18   am
     7     1    18    1
     8     1     2    1
     9     2     3    2
    10     2     4   am
    11     4    27    1
    12    27    28    1
    13    28    29   ar
    14    29    30    1
    15    29    31   ar
    16    31    32   ar
    17    32    33   ar
    18    33    34   ar
    19    34    35   ar
    20    35    36   ar
    21    36    37   ar
    22    37    38   ar
    23     4     5    1
    24     5     6   ar
    25     6     7   ar
    26     7     8   ar
    27     8    25    1
    28    25    26    3
    29     8     9   ar
    30     9    10   ar
    31    10    11    1
    32    11    12   am
    33    12    13    2
    34    12    39    1
    35    39    40    1
    36    40    41    1
    37    40    42    2
    38    40    43    2
    39    11    14    1
    40    14    15    1
    41    14     1    1
    42    38    28   ar
    43    10     5   ar
    44    38    33   ar
    45    23    24    1
    46    18    19    1
@<TRIPOS>MOLECULE
*****
 43 46 0 0 0
SMALL
GASTEIGER

@<TRIPOS>ATOM
      1 C          63.4452   86.5571   13.0039 C.3     1  UNL1        0.1678
      2 C          63.2411   87.9871   13.4083 C.2     1  UNL1        0.2492
      3 O          63.8026   88.3720   14.7448 O.2     1  UNL1       -0.2727
      4 N          62.5496   89.0830   12.6527 N.am    1  UNL1       -0.2518
      5 C          61.8916   89.0197   11.3062 C.ar    1  UNL1        0.0679
      6 C          61.3165   90.3484   10.9142 C.ar    1  UNL1        0.0169
      7 C          60.6122   90.5022    9.5988 C.ar    1  UNL1        0.0116
      8 C          60.4831   89.3272    8.6754 C.ar    1  UNL1        0.0698
      9 C          61.0583   87.9985    9.0673 C.ar    1  UNL1        0.0264
     10 C          61.7625   87.8447   10.3827 C.ar    1  UNL1        0.0682
     11 N          62.2595   86.4429   10.5777 N.am    1  UNL1       -0.2555
     12 C          61.9693   85.4879    9.4580 C.2     1  UNL1        0.2535
     13 O          62.4230   84.0612    9.5525 O.2     1  UNL1       -0.2726
     14 C          63.0084   85.8698   11.7442 C.3     1  UNL1        0.1067
     15 C          63.3680   84.4176   11.6368 C.3     1  UNL1        0.0242
     16 C          63.4248   84.7940   14.9120 C.2     1  UNL1        0.2371
     17 O          61.9270   84.7427   14.8486 O.2     1  UNL1       -0.2737
     18 N          64.1839   85.7012   13.9897 N.am    1  UNL1       -0.2959
     19 H          65.1669   85.7348   14.0313 H       1  UNL1        0.1499
     20 C          64.1635   83.9380   15.8978 C.3     1  UNL1        0.1316
     21 C          64.5115   84.4829   17.2514 C.3     1  UNL1        0.0270
     22 C          64.0019   81.9067   14.2861 C.3     1  UNL1        0.0862
     23 N          64.5542   82.5373   15.5300 N.3     1  UNL1       -0.2902
     24 H          65.5700   82.5295   15.4381 H       1  UNL1        0.1237
     25 C          59.7788   89.4810    7.3599 C.1     1  UNL1        0.1005
     26 N          59.0746   89.6348    6.0445 N.1     1  UNL1       -0.1908
     27 C          62.5111   90.4190   13.3336 C.3     1  UNL1        0.1245
     28 C          63.7896   91.0948   13.7323 C.ar    1  UNL1       -0.0059
     29 C          64.1840   91.1603   15.1780 C.ar    1  UNL1       -0.0242
     30 C          63.8525   90.9007   15.8548 C.3     1  UNL1        0.0308
     31 C          65.4625   91.8361   15.5767 C.ar    1  UNL1       -0.0045
     32 C          66.3464   92.4464   14.5296 C.ar    1  UNL1       -0.0003
     33 C          65.9519   92.3809   13.0839 C.ar    1  UNL1       -0.0003
     34 C          66.8358   92.9911   12.0369 C.ar    1  UNL1       -0.0000
     35 C          66.4413   92.9256   10.5912 C.ar    1  UNL1       -0.0000
     36 C          65.1628   92.2497   10.1925 C.ar    1  UNL1       -0.0000
     37 C          64.2790   91.6395   11.2396 C.ar    1  UNL1       -0.0003
     38 C          64.6735   91.7050   12.6852 C.ar    1  UNL1       -0.0027
     39 C          61.2254   85.9595    8.2437 C.3     1  UNL1        0.2357
     40 S          61.2612   85.1505    6.9811 S.O2    1  UNL1        0.0007
     41 C          61.2970   84.3416    5.7185 C.3     1  UNL1        0.1766
     42 O          62.7566   85.0752    7.0718 O.2     1  UNL1       -0.1725
     43 O          59.7659   85.2259    6.8904 O.2     1  UNL1       -0.1725
@<TRIPOS>BOND
     1    22    23    1
     2    23    20    1
     3    20    21    1
     4    20    16    1
     5    16    17    2
     6    16    18   am
     7     1    18    1
     8     1     2    1
     9     2     3    2
    10     2     4   am
    11     4    27    1
    12    27    28    1
    13    28    29   ar
    14    29    30    1
    15    29    31   ar
    16    31    32   ar
    17    32    33   ar
    18    33    34   ar
    19    34    35   ar
    20    35    36   ar
    21    36    37   ar
    22    37    38   ar
    23     4     5    1
    24     5     6   ar
    25     6     7   ar
    26     7     8   ar
    27     8    25    1
    28    25    26    3
    29     8     9   ar
    30     9    10   ar
    31    10    11    1
    32    11    12   am
    33    12    13    2
    34    12    39    1
    35    39    40    1
    36    40    41    1
    37    40    42    2
    38    40    43    2
    39    11    14    1
    40    14    15    1
    41    14     1    1
    42    38    28   ar
    43    10     5   ar
    44    38    33   ar
    45    23    24    1
    46    18    19    1
@<TRIPOS>MOLECULE
*****
 43 46 0 0 0
SMALL
GASTEIGER

@<TRIPOS>ATOM
      1 C          63.3506   88.5731   14.0364 C.3     1  UNL1        0.1678
      2 C          63.1781   88.4664   12.5501 C.2     1  UNL1        0.2492
      3 O          62.5091   87.2164   12.0606 O.2     1  UNL1       -0.2727
      4 N          63.5863   89.4446   11.4888 N.am    1  UNL1       -0.2518
      5 C          64.2677   90.7710   11.6514 C.ar    1  UNL1        0.0679
      6 C          64.4967   91.4356   10.3263 C.ar    1  UNL1        0.0169
      7 C          65.1673   92.7759   10.2655 C.ar    1  UNL1        0.0116
      8 C          65.6089   93.4517   11.5298 C.ar    1  UNL1        0.0698
      9 C          65.3798   92.7871   12.8548 C.ar    1  UNL1        0.0264
     10 C          64.7092   91.4468   12.9156 C.ar    1  UNL1        0.0682
     11 N          64.5784   90.9631   14.3295 N.am    1  UNL1       -0.2555
     12 C          65.1245   91.8795   15.3840 C.2     1  UNL1        0.2535
     13 O          65.0440   91.4906   16.8305 O.2     1  UNL1       -0.2726
     14 C          63.9738   89.6842   14.8283 C.3     1  UNL1        0.1067
     15 C          63.9951   89.4908   16.3156 C.3     1  UNL1        0.0242
     16 C          63.7443   86.2800   15.1926 C.2     1  UNL1        0.2371
     17 O          65.1769   86.3021   14.7485 O.2     1  UNL1       -0.2737
     18 N          62.8312   87.4155   14.8366 N.am    1  UNL1       -0.2959
     19 H          61.8909   87.4010   15.1280 H       1  UNL1        0.1499
     20 C          63.2249   85.1225   15.9928 C.3     1  UNL1        0.1316
     21 C          63.5235   83.7175   15.5602 C.3     1  UNL1        0.0270
     22 C          62.7175   86.5412   18.1093 C.3     1  UNL1        0.0862
     23 N          62.4068   85.3698   17.2255 N.3     1  UNL1       -0.2902
     24 H          61.4398   85.4797   16.9200 H       1  UNL1        0.1237
     25 C          66.2795   94.7921   11.4689 C.1     1  UNL1        0.1005
     26 N          66.9501   96.1324   11.4081 N.1     1  UNL1       -0.1908
     27 C          63.2714   89.0434   10.0782 C.3     1  UNL1        0.1245
     28 C          61.8624   88.7032    9.6918 C.ar    1  UNL1       -0.0059
     29 C          60.7373   89.6164   10.0794 C.ar    1  UNL1       -0.0242
     30 C          60.6955   90.3052   10.4785 C.3     1  UNL1        0.0308
     31 C          59.3283   89.2763    9.6931 C.ar    1  UNL1       -0.0045
     32 C          59.0445   88.0231    8.9192 C.ar    1  UNL1       -0.0003
     33 C          60.1697   87.1099    8.5317 C.ar    1  UNL1       -0.0003
     34 C          59.8859   85.8567    7.7578 C.ar    1  UNL1       -0.0000
     35 C          61.0111   84.9436    7.3703 C.ar    1  UNL1       -0.0000
     36 C          62.4201   85.2836    7.7566 C.ar    1  UNL1       -0.0000
     37 C          62.7038   86.5369    8.5304 C.ar    1  UNL1       -0.0003
     38 C          61.5787   87.4500    8.9180 C.ar    1  UNL1       -0.0027
     39 C          65.7510   93.1849   14.9921 C.3     1  UNL1        0.2357
     40 S          67.2137   93.4163   15.2306 S.O2    1  UNL1        0.0007
     41 C          68.6764   93.6475   15.4691 C.3     1  UNL1        0.1766
     42 O          67.1093   94.7583   14.5687 O.2     1  UNL1       -0.1725
     43 O          67.3180   92.0742   15.8924 O.2     1  UNL1       -0.1725
@<TRIPOS>BOND
     1    22    23    1
     2    23    20    1
     3    20    21    1
     4    20    16    1
     5    16    17    2
     6    16    18   am
     7     1    18    1
     8     1     2    1
     9     2     3    2
    10     2     4   am
    11     4    27    1
    12    27    28    1
    13    28    29   ar
    14    29    30    1
    15    29    31   ar
    16    31    32   ar
    17    32    33   ar
    18    33    34   ar
    19    34    35   ar
    20    35    36   ar
    21    36    37   ar
    22    37    38   ar
    23     4     5    1
    24     5     6   ar
    25     6     7   ar
    26     7     8   ar
    27     8    25    1
    28    25    26    3
    29     8     9   ar
    30     9    10   ar
    31    10    11    1
    32    11    12   am
    33    12    13    2
    34    12    39    1
    35    39    40    1
    36    40    41    1
    37    40    42    2
    38    40    43    2
    39    11    14    1
    40    14    15    1
    41    14     1    1
    42    38    28   ar
    43    10     5   ar
    44    38    33   ar
    45    23    24    1
    46    18    19    1
