@<TRIPOS>MOLECULE
*****
 41 46 0 0 0
SMALL
GASTEIGER

@<TRIPOS>ATOM
      1 C          60.7925   87.0714    8.4390 C.ar    1  UNL1        0.0000
      2 C          60.4578   88.5336    8.4520 C.ar    1  UNL1        0.0000
      3 O          60.9050   89.0997    9.7671 O.2     1  UNL1        0.0000
      4 C          61.5160   87.9876   10.5669 C.ar    1  UNL1        0.0000
      5 C          62.1267   87.9544   11.9365 C.ar    1  UNL1        0.0000
      6 C          62.6680   86.6676   12.4853 C.ar    1  UNL1        0.0000
      7 C          62.5985   85.4140   11.6645 C.ar    1  UNL1        0.0000
      8 C          61.9878   85.4472   10.2949 C.ar    1  UNL1        0.0000
      9 C          61.4465   86.7340    9.7460 C.ar    1  UNL1        0.0000
     10 C          59.7927   89.2957    7.3443 C.ar    1  UNL1        0.0000
     11 C          60.6176   90.1175    6.3988 C.ar    1  UNL1        0.0000
     12 C          59.9525   90.8797    5.2912 C.ar    1  UNL1        0.0000
     13 C          58.4625   90.8199    5.1291 C.ar    1  UNL1        0.0000
     14 F          57.7974   91.5820    4.0214 F       1  UNL1        0.0000
     15 C          57.6376   89.9980    6.0746 C.ar    1  UNL1        0.0000
     16 C          58.3027   89.2359    7.1822 C.ar    1  UNL1        0.0000
     17 C          61.3464   84.2731    5.6799 C.3     1  UNL1        0.0000
     18 N          61.6180   85.2298    6.8028 N.am    1  UNL1        0.0000
     19 C          60.5209   86.1147    7.3161 C.2     1  UNL1        0.0000
     20 O          59.1523   86.0427    6.7065 O.2     1  UNL1        0.0000
     21 H          62.5163   85.2770    7.2028 H       1  UNL1        0.0000
     22 N          63.2787   86.6343   13.8549 N.ar    1  UNL1        0.0000
     23 N          63.2320   85.4814   14.8134 N.ar    1  UNL1        0.0000
     24 C          63.9678   85.8827   16.0574 C.ar    1  UNL1        0.0000
     25 C          64.4693   87.2837   15.8678 C.ar    1  UNL1        0.0000
     26 C          64.0434   87.7482   14.5066 C.ar    1  UNL1        0.0000
     27 C          64.3316   89.0908   13.9030 C.ar    1  UNL1        0.0000
     28 C          65.3835   89.9740   14.5060 C.ar    1  UNL1        0.0000
     29 C          65.6718   91.3166   13.9025 C.ar    1  UNL1        0.0000
     30 C          64.9080   91.7761   12.6959 C.ar    1  UNL1        0.0000
     31 C          63.8561   90.8929   12.0930 C.ar    1  UNL1        0.0000
     32 F          63.0924   91.3524   10.8865 F       1  UNL1        0.0000
     33 C          63.5679   89.5503   12.6966 C.ar    1  UNL1        0.0000
     34 B          65.1962   93.1187   12.0923 B       1  UNL1        0.0000
     35 O          65.6702   94.2456   12.9616 O.3     1  UNL1        0.0000
     36 O          65.0103   93.3344   10.6196 O.3     1  UNL1        0.0000
     37 H          65.7364   93.9399   13.8798 H       1  UNL1        0.0000
     38 H          64.7020   92.5117   10.2087 H       1  UNL1        0.0000
     39 C          63.1397   84.1272   12.2133 C.3     1  UNL1        0.0000
     40 C          64.3078   83.2574   12.5724 C.3     1  UNL1        0.0000
     41 C          62.9091   82.7682   12.8049 C.3     1  UNL1        0.0000
@<TRIPOS>BOND
     1    17    18    1
     2    18    19   am
     3    19    20    2
     4    19     1    1
     5     1     2   ar
     6     2    10    1
     7    10    11   ar
     8    11    12   ar
     9    12    13   ar
    10    13    14    1
    11    13    15   ar
    12    15    16   ar
    13     2     3   ar
    14     3     4   ar
    15     4     5   ar
    16     5     6   ar
    17     6    22    1
    18    22    23   ar
    19    23    24   ar
    20    24    25   ar
    21    25    26   ar
    22    26    27    1
    23    27    28   ar
    24    28    29   ar
    25    29    30   ar
    26    30    34    1
    27    34    35    1
    28    34    36    1
    29    30    31   ar
    30    31    32    1
    31    31    33   ar
    32     6     7   ar
    33     7    39    1
    34    39    40    1
    35    40    41    1
    36     7     8   ar
    37     8     9   ar
    38     9     1   ar
    39    16    10   ar
    40     9     4   ar
    41    26    22   ar
    42    33    27   ar
    43    41    39    1
    44    18    21    1
    45    35    37    1
    46    36    38    1
@<TRIPOS>MOLECULE
*****
 41 46 0 0 0
SMALL
GASTEIGER

@<TRIPOS>ATOM
      1 C          61.0658   88.4047    9.1127 C.ar    1  UNL1        0.0000
      2 C          60.4475   89.7237    8.7552 C.ar    1  UNL1        0.0000
      3 O          60.6657   90.6642    9.9032 O.2     1  UNL1        0.0000
      4 C          61.4188   89.9264   10.9702 C.ar    1  UNL1        0.0000
      5 C          61.9113   90.3457   12.3236 C.ar    1  UNL1        0.0000
      6 C          62.6512   89.3685   13.1883 C.ar    1  UNL1        0.0000
      7 C          62.8985   87.9721   12.6997 C.ar    1  UNL1        0.0000
      8 C          62.4060   87.5528   11.3464 C.ar    1  UNL1        0.0000
      9 C          61.6661   88.5299   10.4816 C.ar    1  UNL1        0.0000
     10 C          59.7360   90.0458    7.4746 C.ar    1  UNL1        0.0000
     11 C          58.2874   89.6922    7.3120 C.ar    1  UNL1        0.0000
     12 C          57.5759   90.0143    6.0314 C.ar    1  UNL1        0.0000
     13 C          58.3129   90.6899    4.9133 C.ar    1  UNL1        0.0000
     14 F          57.6014   91.0120    3.6327 F       1  UNL1        0.0000
     15 C          59.7615   91.0435    5.0759 C.ar    1  UNL1        0.0000
     16 C          60.4731   90.7214    6.3565 C.ar    1  UNL1        0.0000
     17 C          62.2938   85.0437    7.3962 C.3     1  UNL1        0.0000
     18 N          62.2784   86.2723    8.2566 N.am    1  UNL1        0.0000
     19 C          61.0812   87.1761    8.2523 C.2     1  UNL1        0.0000
     20 O          59.8994   86.8511    7.3876 O.2     1  UNL1        0.0000
     21 H          63.0541   86.4855    8.8241 H       1  UNL1        0.0000
     22 N          63.1437   89.7879   14.5417 N.ar    1  UNL1        0.0000
     23 N          62.5547   89.3802   15.8596 N.ar    1  UNL1        0.0000
     24 C          63.3588   90.0288   16.9471 C.ar    1  UNL1        0.0000
     25 C          64.4448   90.8374   16.3014 C.ar    1  UNL1        0.0000
     26 C          64.3118   90.6884   14.8147 C.ar    1  UNL1        0.0000
     27 C          65.1924   91.3278   13.7824 C.ar    1  UNL1        0.0000
     28 C          66.6509   91.5349   14.0650 C.ar    1  UNL1        0.0000
     29 C          67.5316   92.1742   13.0327 C.ar    1  UNL1        0.0000
     30 C          66.9537   92.6066   11.7177 C.ar    1  UNL1        0.0000
     31 C          65.4952   92.3996   11.4351 C.ar    1  UNL1        0.0000
     32 F          64.9172   92.8319   10.1202 F       1  UNL1        0.0000
     33 C          64.6146   91.7602   12.4675 C.ar    1  UNL1        0.0000
     34 B          67.8343   93.2460   10.6854 B       1  UNL1        0.0000
     35 O          67.5498   94.6427   10.2181 O.3     1  UNL1        0.0000
     36 O          68.9992   92.4887   10.1203 O.3     1  UNL1        0.0000
     37 H          66.7685   94.9853   10.6798 H       1  UNL1        0.0000
     38 H          69.0404   91.6087   10.5264 H       1  UNL1        0.0000
     39 C          63.6384   86.9949   13.5645 C.3     1  UNL1        0.0000
     40 C          64.0000   85.5810   13.9107 C.3     1  UNL1        0.0000
     41 C          64.5582   86.7165   14.7161 C.3     1  UNL1        0.0000
@<TRIPOS>BOND
     1    17    18    1
     2    18    19   am
     3    19    20    2
     4    19     1    1
     5     1     2   ar
     6     2    10    1
     7    10    11   ar
     8    11    12   ar
     9    12    13   ar
    10    13    14    1
    11    13    15   ar
    12    15    16   ar
    13     2     3   ar
    14     3     4   ar
    15     4     5   ar
    16     5     6   ar
    17     6    22    1
    18    22    23   ar
    19    23    24   ar
    20    24    25   ar
    21    25    26   ar
    22    26    27    1
    23    27    28   ar
    24    28    29   ar
    25    29    30   ar
    26    30    34    1
    27    34    35    1
    28    34    36    1
    29    30    31   ar
    30    31    32    1
    31    31    33   ar
    32     6     7   ar
    33     7    39    1
    34    39    40    1
    35    40    41    1
    36     7     8   ar
    37     8     9   ar
    38     9     1   ar
    39    16    10   ar
    40     9     4   ar
    41    26    22   ar
    42    33    27   ar
    43    41    39    1
    44    18    21    1
    45    35    37    1
    46    36    38    1
@<TRIPOS>MOLECULE
*****
 41 46 0 0 0
SMALL
GASTEIGER

@<TRIPOS>ATOM
      1 C          61.1749   86.1769    8.8493 C.ar    1  UNL1        0.0000
      2 C          60.6141   87.5477    9.0872 C.ar    1  UNL1        0.0000
      3 O          60.7762   87.8683   10.5436 O.2     1  UNL1        0.0000
      4 C          61.4372   86.6958   11.2056 C.ar    1  UNL1        0.0000
      5 C          61.8464   86.4449   12.6267 C.ar    1  UNL1        0.0000
      6 C          62.5021   85.1487   13.0006 C.ar    1  UNL1        0.0000
      7 C          62.7485   84.1033   11.9535 C.ar    1  UNL1        0.0000
      8 C          62.3392   84.3542   10.5324 C.ar    1  UNL1        0.0000
      9 C          61.6835   85.6504   10.1585 C.ar    1  UNL1        0.0000
     10 C          59.9993   88.4409    8.0509 C.ar    1  UNL1        0.0000
     11 C          58.6319   88.1368    7.5145 C.ar    1  UNL1        0.0000
     12 C          58.0170   89.0300    6.4782 C.ar    1  UNL1        0.0000
     13 C          58.7695   90.2274    5.9781 C.ar    1  UNL1        0.0000
     14 F          58.1546   91.1206    4.9418 F       1  UNL1        0.0000
     15 C          60.1369   90.5314    6.5145 C.ar    1  UNL1        0.0000
     16 C          60.7518   89.6382    7.5508 C.ar    1  UNL1        0.0000
     17 C          62.5780   84.2877    5.6535 C.3     1  UNL1        0.0000
     18 N          62.5337   85.0059    6.9697 N.am    1  UNL1        0.0000
     19 C          61.2192   85.4587    7.5331 C.2     1  UNL1        0.0000
     20 O          59.9493   85.1934    6.7803 O.2     1  UNL1        0.0000
     21 H          63.3672   85.1801    7.4637 H       1  UNL1        0.0000
     22 N          62.9115   84.8977   14.4218 N.ar    1  UNL1        0.0000
     23 N          62.8384   83.5837   15.1414 N.ar    1  UNL1        0.0000
     24 C          63.3475   83.7907   16.5371 C.ar    1  UNL1        0.0000
     25 C          63.7352   85.2327   16.6801 C.ar    1  UNL1        0.0000
     26 C          63.4657   85.9169   15.3727 C.ar    1  UNL1        0.0000
     27 C          63.7079   87.3658   15.0695 C.ar    1  UNL1        0.0000
     28 C          64.2057   87.7756   13.7152 C.ar    1  UNL1        0.0000
     29 C          64.4479   89.2245   13.4118 C.ar    1  UNL1        0.0000
     30 C          64.1923   90.2637   14.4630 C.ar    1  UNL1        0.0000
     31 C          63.6945   89.8539   15.8174 C.ar    1  UNL1        0.0000
     32 F          63.4388   90.8930   16.8685 F       1  UNL1        0.0000
     33 C          63.4523   88.4049   16.1206 C.ar    1  UNL1        0.0000
     34 B          64.4345   91.7126   14.1598 B       1  UNL1        0.0000
     35 O          65.2104   92.5609   15.1234 O.3     1  UNL1        0.0000
     36 O          63.9008   92.3132   12.8932 O.3     1  UNL1        0.0000
     37 H          65.4802   92.0223   15.8836 H       1  UNL1        0.0000
     38 H          63.4274   91.6340   12.3877 H       1  UNL1        0.0000
     39 C          63.4042   82.8070   12.3275 C.3     1  UNL1        0.0000
     40 C          64.6364   82.0309   12.6871 C.3     1  UNL1        0.0000
     41 C          63.3078   81.3381   12.6156 C.3     1  UNL1        0.0000
@<TRIPOS>BOND
     1    17    18    1
     2    18    19   am
     3    19    20    2
     4    19     1    1
     5     1     2   ar
     6     2    10    1
     7    10    11   ar
     8    11    12   ar
     9    12    13   ar
    10    13    14    1
    11    13    15   ar
    12    15    16   ar
    13     2     3   ar
    14     3     4   ar
    15     4     5   ar
    16     5     6   ar
    17     6    22    1
    18    22    23   ar
    19    23    24   ar
    20    24    25   ar
    21    25    26   ar
    22    26    27    1
    23    27    28   ar
    24    28    29   ar
    25    29    30   ar
    26    30    34    1
    27    34    35    1
    28    34    36    1
    29    30    31   ar
    30    31    32    1
    31    31    33   ar
    32     6     7   ar
    33     7    39    1
    34    39    40    1
    35    40    41    1
    36     7     8   ar
    37     8     9   ar
    38     9     1   ar
    39    16    10   ar
    40     9     4   ar
    41    26    22   ar
    42    33    27   ar
    43    41    39    1
    44    18    21    1
    45    35    37    1
    46    36    38    1
@<TRIPOS>MOLECULE
*****
 41 46 0 0 0
SMALL
GASTEIGER

@<TRIPOS>ATOM
      1 C          62.8841   85.1470   10.8543 C.ar    1  UNL1        0.0000
      2 C          62.5023   86.0185    9.6946 C.ar    1  UNL1        0.0000
      3 O          62.4394   87.4360   10.1812 O.2     1  UNL1        0.0000
      4 C          62.7822   87.4405   11.6415 C.ar    1  UNL1        0.0000
      5 C          62.8796   88.5501   12.6461 C.ar    1  UNL1        0.0000
      6 C          63.2519   88.2450   14.0667 C.ar    1  UNL1        0.0000
      7 C          63.5268   86.8303   14.4827 C.ar    1  UNL1        0.0000
      8 C          63.4294   85.7207   13.4781 C.ar    1  UNL1        0.0000
      9 C          63.0571   86.0258   12.0575 C.ar    1  UNL1        0.0000
     10 C          62.2311   85.5540    8.2944 C.ar    1  UNL1        0.0000
     11 C          63.3526   85.0290    7.4479 C.ar    1  UNL1        0.0000
     12 C          63.0814   84.5645    6.0476 C.ar    1  UNL1        0.0000
     13 C          61.6887   84.6251    5.4939 C.ar    1  UNL1        0.0000
     14 F          61.4175   84.1606    4.0936 F       1  UNL1        0.0000
     15 C          60.5672   85.1501    6.3403 C.ar    1  UNL1        0.0000
     16 C          60.8384   85.6146    7.7406 C.ar    1  UNL1        0.0000
     17 C          62.5841   81.3094   11.8204 C.3     1  UNL1        0.0000
     18 N          62.4065   82.7984   11.8574 N.am    1  UNL1        0.0000
     19 C          63.0617   83.6580   10.8172 C.2     1  UNL1        0.0000
     20 O          63.8945   83.0285    9.7402 O.2     1  UNL1        0.0000
     21 H          61.8598   83.2115   12.5644 H       1  UNL1        0.0000
     22 N          63.3494   89.3546   15.0714 N.ar    1  UNL1        0.0000
     23 N          62.7981   89.3320   16.4662 N.ar    1  UNL1        0.0000
     24 C          63.1232   90.6450   17.1145 C.ar    1  UNL1        0.0000
     25 C          63.8755   91.4791   16.1203 C.ar    1  UNL1        0.0000
     26 C          64.0153   90.6816   14.8576 C.ar    1  UNL1        0.0000
     27 C          64.7006   91.1320   13.6017 C.ar    1  UNL1        0.0000
     28 C          66.1694   91.4360   13.6164 C.ar    1  UNL1        0.0000
     29 C          66.8548   91.8864   12.3605 C.ar    1  UNL1        0.0000
     30 C          66.0713   92.0328   11.0897 C.ar    1  UNL1        0.0000
     31 C          64.6025   91.7288   11.0750 C.ar    1  UNL1        0.0000
     32 F          63.8190   91.8752    9.8043 F       1  UNL1        0.0000
     33 C          63.9172   91.2784   12.3310 C.ar    1  UNL1        0.0000
     34 B          66.7566   92.4833    9.8338 B       1  UNL1        0.0000
     35 O          67.8006   91.6150    9.1964 O.3     1  UNL1        0.0000
     36 O          66.3980   93.8019    9.2153 O.3     1  UNL1        0.0000
     37 H          67.9106   90.8051    9.7188 H       1  UNL1        0.0000
     38 H          65.7120   94.2332    9.7484 H       1  UNL1        0.0000
     39 C          63.8991   86.5252   15.9034 C.3     1  UNL1        0.0000
     40 C          64.8545   85.9350   16.8979 C.3     1  UNL1        0.0000
     41 C          63.5886   86.5869   17.3697 C.3     1  UNL1        0.0000
@<TRIPOS>BOND
     1    17    18    1
     2    18    19   am
     3    19    20    2
     4    19     1    1
     5     1     2   ar
     6     2    10    1
     7    10    11   ar
     8    11    12   ar
     9    12    13   ar
    10    13    14    1
    11    13    15   ar
    12    15    16   ar
    13     2     3   ar
    14     3     4   ar
    15     4     5   ar
    16     5     6   ar
    17     6    22    1
    18    22    23   ar
    19    23    24   ar
    20    24    25   ar
    21    25    26   ar
    22    26    27    1
    23    27    28   ar
    24    28    29   ar
    25    29    30   ar
    26    30    34    1
    27    34    35    1
    28    34    36    1
    29    30    31   ar
    30    31    32    1
    31    31    33   ar
    32     6     7   ar
    33     7    39    1
    34    39    40    1
    35    40    41    1
    36     7     8   ar
    37     8     9   ar
    38     9     1   ar
    39    16    10   ar
    40     9     4   ar
    41    26    22   ar
    42    33    27   ar
    43    41    39    1
    44    18    21    1
    45    35    37    1
    46    36    38    1
@<TRIPOS>MOLECULE
*****
 41 46 0 0 0
SMALL
GASTEIGER

@<TRIPOS>ATOM
      1 C          62.9294   85.8778   11.6507 C.ar    1  UNL1        0.0000
      2 C          63.3016   84.7742   12.5959 C.ar    1  UNL1        0.0000
      3 O          63.8309   85.3991   13.8526 O.2     1  UNL1        0.0000
      4 C          63.7858   86.8890   13.6841 C.ar    1  UNL1        0.0000
      5 C          64.1801   88.0144   14.5940 C.ar    1  UNL1        0.0000
      6 C          64.0172   89.4356   14.1430 C.ar    1  UNL1        0.0000
      7 C          63.4601   89.7315   12.7821 C.ar    1  UNL1        0.0000
      8 C          63.0658   88.6061   11.8722 C.ar    1  UNL1        0.0000
      9 C          63.2287   87.1848   12.3232 C.ar    1  UNL1        0.0000
     10 C          63.1680   83.3039   12.3309 C.ar    1  UNL1        0.0000
     11 C          62.4705   82.4231   13.3247 C.ar    1  UNL1        0.0000
     12 C          62.3369   80.9527   13.0597 C.ar    1  UNL1        0.0000
     13 C          62.9009   80.3631   11.8010 C.ar    1  UNL1        0.0000
     14 F          62.7673   78.8928   11.5361 F       1  UNL1        0.0000
     15 C          63.5984   81.2439   10.8073 C.ar    1  UNL1        0.0000
     16 C          63.7320   82.7143   11.0723 C.ar    1  UNL1        0.0000
     17 C          60.4235   86.0694    8.5792 C.3     1  UNL1        0.0000
     18 N          60.9946   86.2424    9.9554 N.am    1  UNL1        0.0000
     19 C          62.3583   85.7049   10.2745 C.2     1  UNL1        0.0000
     20 O          63.1505   84.9945    9.2174 O.2     1  UNL1        0.0000
     21 H          60.4746   86.7087   10.6492 H       1  UNL1        0.0000
     22 N          64.4115   90.5611   15.0529 N.ar    1  UNL1        0.0000
     23 N          63.8476   90.8315   16.4163 N.ar    1  UNL1        0.0000
     24 C          64.5265   92.0513   16.9651 C.ar    1  UNL1        0.0000
     25 C          65.5100   92.5348   15.9409 C.ar    1  UNL1        0.0000
     26 C          65.4389   91.6138   14.7591 C.ar    1  UNL1        0.0000
     27 C          66.2523   91.7259   13.5038 C.ar    1  UNL1        0.0000
     28 C          67.6276   91.1297   13.4456 C.ar    1  UNL1        0.0000
     29 C          68.4411   91.2417   12.1904 C.ar    1  UNL1        0.0000
     30 C          67.8794   91.9500   10.9933 C.ar    1  UNL1        0.0000
     31 C          66.5042   92.5461   11.0515 C.ar    1  UNL1        0.0000
     32 F          65.9424   93.2544    9.8545 F       1  UNL1        0.0000
     33 C          65.6907   92.4341   12.3068 C.ar    1  UNL1        0.0000
     34 B          68.6928   92.0620    9.7380 B       1  UNL1        0.0000
     35 O          69.7750   93.0958    9.6354 O.3     1  UNL1        0.0000
     36 O          68.4242   91.1404    8.5854 O.3     1  UNL1        0.0000
     37 H          69.8164   93.6035   10.4608 H       1  UNL1        0.0000
     38 H          67.6990   90.5385    8.8150 H       1  UNL1        0.0000
     39 C          63.2972   91.1528   12.3311 C.3     1  UNL1        0.0000
     40 C          63.0750   92.6007   12.6539 C.3     1  UNL1        0.0000
     41 C          63.2373   92.1667   11.2273 C.3     1  UNL1        0.0000
@<TRIPOS>BOND
     1    17    18    1
     2    18    19   am
     3    19    20    2
     4    19     1    1
     5     1     2   ar
     6     2    10    1
     7    10    11   ar
     8    11    12   ar
     9    12    13   ar
    10    13    14    1
    11    13    15   ar
    12    15    16   ar
    13     2     3   ar
    14     3     4   ar
    15     4     5   ar
    16     5     6   ar
    17     6    22    1
    18    22    23   ar
    19    23    24   ar
    20    24    25   ar
    21    25    26   ar
    22    26    27    1
    23    27    28   ar
    24    28    29   ar
    25    29    30   ar
    26    30    34    1
    27    34    35    1
    28    34    36    1
    29    30    31   ar
    30    31    32    1
    31    31    33   ar
    32     6     7   ar
    33     7    39    1
    34    39    40    1
    35    40    41    1
    36     7     8   ar
    37     8     9   ar
    38     9     1   ar
    39    16    10   ar
    40     9     4   ar
    41    26    22   ar
    42    33    27   ar
    43    41    39    1
    44    18    21    1
    45    35    37    1
    46    36    38    1
@<TRIPOS>MOLECULE
*****
 41 46 0 0 0
SMALL
GASTEIGER

@<TRIPOS>ATOM
      1 C          61.3359   89.7193   11.8183 C.ar    1  UNL1        0.0000
      2 C          61.8248   89.2563   10.4779 C.ar    1  UNL1        0.0000
      3 O          63.3051   89.4911   10.4181 O.2     1  UNL1        0.0000
      4 C          63.7311   90.0992   11.7215 C.ar    1  UNL1        0.0000
      5 C          65.0699   90.5428   12.2321 C.ar    1  UNL1        0.0000
      6 C          65.1917   91.1273   13.6081 C.ar    1  UNL1        0.0000
      7 C          63.9746   91.2683   14.4735 C.ar    1  UNL1        0.0000
      8 C          62.6358   90.8248   13.9629 C.ar    1  UNL1        0.0000
      9 C          62.5140   90.2402   12.5869 C.ar    1  UNL1        0.0000
     10 C          60.9815   88.6627    9.3887 C.ar    1  UNL1        0.0000
     11 C          60.9302   87.1748    9.2064 C.ar    1  UNL1        0.0000
     12 C          60.0869   86.5812    8.1172 C.ar    1  UNL1        0.0000
     13 C          59.2949   87.4756    7.2101 C.ar    1  UNL1        0.0000
     14 F          58.4516   86.8820    6.1209 F       1  UNL1        0.0000
     15 C          59.3462   88.9636    7.3924 C.ar    1  UNL1        0.0000
     16 C          60.1895   89.5571    8.4817 C.ar    1  UNL1        0.0000
     17 C          58.0466   88.4913   13.6684 C.3     1  UNL1        0.0000
     18 N          59.4647   88.5406   13.1820 N.am    1  UNL1        0.0000
     19 C          59.9178   89.6700   12.3048 C.2     1  UNL1        0.0000
     20 O          58.9529   90.7499   11.9142 O.2     1  UNL1        0.0000
     21 H          60.0980   87.8318   13.4384 H       1  UNL1        0.0000
     22 N          66.5306   91.5709   14.1188 N.ar    1  UNL1        0.0000
     23 N          67.2747   90.9739   15.2763 N.ar    1  UNL1        0.0000
     24 C          68.5643   91.7234   15.4345 C.ar    1  UNL1        0.0000
     25 C          68.6173   92.7836   14.3746 C.ar    1  UNL1        0.0000
     26 C          67.3604   92.6893   13.5615 C.ar    1  UNL1        0.0000
     27 C          66.9970   93.5605   12.3958 C.ar    1  UNL1        0.0000
     28 C          66.3235   94.8807   12.6273 C.ar    1  UNL1        0.0000
     29 C          65.9601   95.7520   11.4616 C.ar    1  UNL1        0.0000
     30 C          66.2703   95.3031   10.0643 C.ar    1  UNL1        0.0000
     31 C          66.9438   93.9829    9.8328 C.ar    1  UNL1        0.0000
     32 F          67.2540   93.5340    8.4356 F       1  UNL1        0.0000
     33 C          67.3072   93.1117   10.9985 C.ar    1  UNL1        0.0000
     34 B          65.9070   96.1743    8.8986 B       1  UNL1        0.0000
     35 O          64.4721   96.5338    8.6495 O.3     1  UNL1        0.0000
     36 O          66.9784   96.6860    7.9820 O.3     1  UNL1        0.0000
     37 H          63.9136   96.1245    9.3288 H       1  UNL1        0.0000
     38 H          67.8423   96.3631    8.2825 H       1  UNL1        0.0000
     39 C          64.0965   91.8529   15.8496 C.3     1  UNL1        0.0000
     40 C          64.8833   92.6214   16.8695 C.3     1  UNL1        0.0000
     41 C          63.5207   92.0969   17.2130 C.3     1  UNL1        0.0000
@<TRIPOS>BOND
     1    17    18    1
     2    18    19   am
     3    19    20    2
     4    19     1    1
     5     1     2   ar
     6     2    10    1
     7    10    11   ar
     8    11    12   ar
     9    12    13   ar
    10    13    14    1
    11    13    15   ar
    12    15    16   ar
    13     2     3   ar
    14     3     4   ar
    15     4     5   ar
    16     5     6   ar
    17     6    22    1
    18    22    23   ar
    19    23    24   ar
    20    24    25   ar
    21    25    26   ar
    22    26    27    1
    23    27    28   ar
    24    28    29   ar
    25    29    30   ar
    26    30    34    1
    27    34    35    1
    28    34    36    1
    29    30    31   ar
    30    31    32    1
    31    31    33   ar
    32     6     7   ar
    33     7    39    1
    34    39    40    1
    35    40    41    1
    36     7     8   ar
    37     8     9   ar
    38     9     1   ar
    39    16    10   ar
    40     9     4   ar
    41    26    22   ar
    42    33    27   ar
    43    41    39    1
    44    18    21    1
    45    35    37    1
    46    36    38    1
