@<TRIPOS>MOLECULE
*****
 39 43 0 0 0
SMALL
GASTEIGER

@<TRIPOS>ATOM
      1 C          61.8772   88.2854   10.8958 C.3     1  UNL1        0.0933
      2 C          61.9801   89.4531    9.9598 C.3     1  UNL1        0.0442
      3 C          61.0852   89.5325    8.7585 C.3     1  UNL1        0.0953
      4 N          60.0874   88.4444    8.4934 N.am    1  UNL1       -0.2794
      5 C          59.1925   88.5238    7.2922 C.2     1  UNL1        0.2252
      6 O          58.1947   87.4357    7.0270 O.2     1  UNL1       -0.2749
      7 C          59.9845   87.2768    9.4294 C.3     1  UNL1        0.0953
      8 C          60.8794   87.1974   10.6306 C.3     1  UNL1        0.0442
      9 N          64.0431   87.3420   13.9754 N.ar    1  UNL1       -0.2799
     10 C          63.1265   86.9590   12.8515 C.ar    1  UNL1        0.3315
     11 O          62.6483   85.5724   12.5373 O.2     1  UNL1       -0.2463
     12 N          62.7721   88.2060   12.0970 N.ar    1  UNL1       -0.2817
     13 C          63.4696   89.3597   12.7546 C.ar    1  UNL1        0.0798
     14 C          63.4909   90.8275   12.4463 C.ar    1  UNL1        0.0211
     15 C          64.2978   91.7613   13.2989 C.ar    1  UNL1        0.0312
     16 C          65.0834   91.2273   14.4598 C.ar    1  UNL1        0.1417
     17 F          65.8903   92.1611   15.3124 F       1  UNL1       -0.2041
     18 C          65.0621   89.7595   14.7681 C.ar    1  UNL1        0.0484
     19 C          64.2552   88.8257   13.9155 C.ar    1  UNL1        0.0819
     20 C          64.6425   86.4056   14.9824 C.3     1  UNL1        0.1105
     21 C          63.1057   86.2603   17.0722 C.3     1  UNL1        0.0020
     22 C          63.7518   85.6065   15.8868 C.3     1  UNL1        0.0228
     23 C          63.5070   84.1535   15.6058 C.3     1  UNL1        0.0020
     24 C          59.2955   89.6914    6.3562 C.3     1  UNL1        0.0795
     25 C          60.6237   90.0673    5.7693 C.3     1  UNL1        0.0264
     26 C          60.7267   91.2350    4.8332 C.3     1  UNL1        0.0729
     27 N          59.5014   92.0267    4.4842 N.3     1  UNL1       -0.2689
     28 C          58.1731   91.6508    5.0711 C.3     1  UNL1        0.0729
     29 C          58.0702   90.4832    6.0071 C.3     1  UNL1        0.0264
     30 C          59.6044   93.1943    3.5482 C.3     1  UNL1        0.0993
     31 C          60.1550   93.0015    2.1663 C.ar    1  UNL1       -0.0018
     32 C          61.6335   93.0893    1.9291 C.ar    1  UNL1        0.0179
     33 C          62.1842   92.8965    0.5473 C.ar    1  UNL1        0.1000
     34 N          61.2563   92.6160   -0.5974 N.ar    1  UNL1       -0.2296
     35 C          59.7778   92.5282   -0.3602 C.ar    1  UNL1        0.1251
     36 N          58.8500   92.2476   -1.5049 N.pl3   1  UNL1       -0.3426
     37 C          59.2271   92.7209    1.0217 C.ar    1  UNL1        0.0310
     38 H          59.2115   92.1211   -2.4119 H       1  UNL1        0.1437
     39 H          57.8796   92.1900   -1.3493 H       1  UNL1        0.1437
@<TRIPOS>BOND
     1    21    22    1
     2    22    23    1
     3    22    20    1
     4    20     9    1
     5     9    10   ar
     6    10    11    2
     7    10    12   ar
     8    12     1    1
     9     1     2    1
    10     2     3    1
    11     3     4    1
    12     4     5   am
    13     5     6    2
    14     5    24    1
    15    24    25    1
    16    25    26    1
    17    26    27    1
    18    27    30    1
    19    30    31    1
    20    31    32   ar
    21    32    33   ar
    22    33    34   ar
    23    34    35   ar
    24    35    36    1
    25    35    37   ar
    26    27    28    1
    27    28    29    1
    28     4     7    1
    29     7     8    1
    30    12    13   ar
    31    13    14   ar
    32    14    15   ar
    33    15    16   ar
    34    16    17    1
    35    16    18   ar
    36    18    19   ar
    37    19     9   ar
    38     8     1    1
    39    19    13   ar
    40    29    24    1
    41    37    31   ar
    42    36    38    1
    43    36    39    1
@<TRIPOS>MOLECULE
*****
 39 43 0 0 0
SMALL
GASTEIGER

@<TRIPOS>ATOM
      1 C          61.8007   88.4980   10.7532 C.3     1  UNL1        0.0933
      2 C          61.9235   89.6571    9.8089 C.3     1  UNL1        0.0442
      3 C          61.0443   89.7327    8.5960 C.3     1  UNL1        0.0953
      4 N          60.0424   88.6493    8.3271 N.am    1  UNL1       -0.2794
      5 C          59.1632   88.7249    7.1141 C.2     1  UNL1        0.2252
      6 O          58.1612   87.6415    6.8453 O.2     1  UNL1       -0.2749
      7 C          59.9196   87.4902    9.2713 C.3     1  UNL1        0.0953
      8 C          60.7988   87.4146   10.4843 C.3     1  UNL1        0.0442
      9 N          64.0689   89.0547   13.8532 N.ar    1  UNL1       -0.2799
     10 C          63.2551   89.5895   12.7123 C.ar    1  UNL1        0.3315
     11 O          63.0522   91.0373   12.3764 O.2     1  UNL1       -0.2463
     12 N          62.6799   88.4223   11.9661 N.ar    1  UNL1       -0.2817
     13 C          63.1381   87.1662   12.6459 C.ar    1  UNL1        0.0798
     14 C          62.8846   85.7170   12.3536 C.ar    1  UNL1        0.0211
     15 C          63.4896   84.6586   13.2276 C.ar    1  UNL1        0.0312
     16 C          64.3481   85.0495   14.3939 C.ar    1  UNL1        0.1417
     17 F          64.9530   83.9910   15.2679 F       1  UNL1       -0.2041
     18 C          64.6016   86.4987   14.6862 C.ar    1  UNL1        0.0484
     19 C          63.9966   87.5570   13.8122 C.ar    1  UNL1        0.0819
     20 C          64.8227   89.8738   14.8586 C.3     1  UNL1        0.1105
     21 C          63.0948   89.6808   16.7892 C.3     1  UNL1        0.0020
     22 C          64.0990   90.4873   16.0203 C.3     1  UNL1        0.0228
     23 C          64.3794   91.9076   16.4134 C.3     1  UNL1        0.0020
     24 C          59.2860   89.8840    6.1701 C.3     1  UNL1        0.0795
     25 C          60.6233   90.2435    5.5937 C.3     1  UNL1        0.0264
     26 C          60.7461   91.4027    4.6495 C.3     1  UNL1        0.0729
     27 N          59.5314   92.2024    4.2818 N.3     1  UNL1       -0.2689
     28 C          58.1941   91.8429    4.8582 C.3     1  UNL1        0.0729
     29 C          58.0714   90.6838    5.8023 C.3     1  UNL1        0.0264
     30 C          59.6543   93.3615    3.3377 C.3     1  UNL1        0.0993
     31 C          60.1711   93.1441    1.9464 C.ar    1  UNL1       -0.0018
     32 C          61.6399   93.2605    1.6652 C.ar    1  UNL1        0.0179
     33 C          62.1567   93.0432    0.2740 C.ar    1  UNL1        0.1000
     34 N          61.2047   92.7095   -0.8361 N.ar    1  UNL1       -0.2296
     35 C          59.7359   92.5931   -0.5549 C.ar    1  UNL1        0.1251
     36 N          58.7840   92.2594   -1.6651 N.pl3   1  UNL1       -0.3426
     37 C          59.2191   92.8104    0.8363 C.ar    1  UNL1        0.0310
     38 H          59.1232   92.1168   -2.5782 H       1  UNL1        0.1437
     39 H          57.8199   92.1830   -1.4806 H       1  UNL1        0.1437
@<TRIPOS>BOND
     1    21    22    1
     2    22    23    1
     3    22    20    1
     4    20     9    1
     5     9    10   ar
     6    10    11    2
     7    10    12   ar
     8    12     1    1
     9     1     2    1
    10     2     3    1
    11     3     4    1
    12     4     5   am
    13     5     6    2
    14     5    24    1
    15    24    25    1
    16    25    26    1
    17    26    27    1
    18    27    30    1
    19    30    31    1
    20    31    32   ar
    21    32    33   ar
    22    33    34   ar
    23    34    35   ar
    24    35    36    1
    25    35    37   ar
    26    27    28    1
    27    28    29    1
    28     4     7    1
    29     7     8    1
    30    12    13   ar
    31    13    14   ar
    32    14    15   ar
    33    15    16   ar
    34    16    17    1
    35    16    18   ar
    36    18    19   ar
    37    19     9   ar
    38     8     1    1
    39    19    13   ar
    40    29    24    1
    41    37    31   ar
    42    36    38    1
    43    36    39    1
@<TRIPOS>MOLECULE
*****
 39 43 0 0 0
SMALL
GASTEIGER

@<TRIPOS>ATOM
      1 C          61.2222   92.3516    2.7797 C.3     1  UNL1        0.0933
      2 C          61.7979   91.4928    3.8666 C.3     1  UNL1        0.0442
      3 C          60.8972   90.8947    4.9063 C.3     1  UNL1        0.0953
      4 N          59.4208   91.1553    4.8592 N.am    1  UNL1       -0.2794
      5 C          58.5201   90.5572    5.8989 C.2     1  UNL1        0.2252
      6 O          57.0437   90.8178    5.8519 O.2     1  UNL1       -0.2749
      7 C          58.8451   92.0141    3.7724 C.3     1  UNL1        0.0953
      8 C          59.7458   92.6122    2.7327 C.3     1  UNL1        0.0442
      9 N          64.0332   93.9894    0.6629 N.ar    1  UNL1       -0.2799
     10 C          63.5006   93.4943    1.9749 C.ar    1  UNL1        0.3315
     11 O          64.2196   93.5365    3.2907 O.2     1  UNL1       -0.2463
     12 N          62.1229   92.9497    1.7400 N.ar    1  UNL1       -0.2817
     13 C          61.8039   93.1081    0.2829 C.ar    1  UNL1        0.0798
     14 C          60.5910   92.7503   -0.5237 C.ar    1  UNL1        0.0211
     15 C          60.5587   93.0351   -1.9961 C.ar    1  UNL1        0.0312
     16 C          61.7394   93.6777   -2.6618 C.ar    1  UNL1        0.1417
     17 F          61.7070   93.9624   -4.1342 F       1  UNL1       -0.2041
     18 C          62.9523   94.0355   -1.8551 C.ar    1  UNL1        0.0484
     19 C          62.9846   93.7507   -0.3828 C.ar    1  UNL1        0.0819
     20 C          65.3782   94.6136    0.4364 C.3     1  UNL1        0.1105
     21 C          66.0244   96.8557   -0.7061 C.3     1  UNL1        0.0020
     22 C          65.5328   96.1043    0.4955 C.3     1  UNL1        0.0228
     23 C          65.1958   96.8439    1.7563 C.3     1  UNL1        0.0020
     24 C          59.0959   89.6985    6.9856 C.3     1  UNL1        0.0795
     25 C          60.0118   90.2993    8.0104 C.3     1  UNL1        0.0264
     26 C          60.5876   89.4405    9.0972 C.3     1  UNL1        0.0729
     27 N          60.2474   87.9808    9.1591 N.3     1  UNL1       -0.2689
     28 C          59.3315   87.3800    8.1344 C.3     1  UNL1        0.0729
     29 C          58.7557   88.2388    7.0477 C.3     1  UNL1        0.0264
     30 C          60.8232   87.1221   10.2459 C.3     1  UNL1        0.0993
     31 C          61.8113   86.0457    9.9070 C.ar    1  UNL1       -0.0018
     32 C          62.2923   85.8865    8.4951 C.ar    1  UNL1        0.0179
     33 C          63.2804   84.8100    8.1563 C.ar    1  UNL1        0.1000
     34 N          63.7876   83.8928    9.2293 N.ar    1  UNL1       -0.2296
     35 C          63.3066   84.0519   10.6411 C.ar    1  UNL1        0.1251
     36 N          63.8139   83.1346   11.7141 N.pl3   1  UNL1       -0.3426
     37 C          62.3185   85.1284   10.9800 C.ar    1  UNL1        0.0310
     38 H          64.4624   82.4281   11.4916 H       1  UNL1        0.1437
     39 H          63.4982   83.2391   12.6407 H       1  UNL1        0.1437
@<TRIPOS>BOND
     1    21    22    1
     2    22    23    1
     3    22    20    1
     4    20     9    1
     5     9    10   ar
     6    10    11    2
     7    10    12   ar
     8    12     1    1
     9     1     2    1
    10     2     3    1
    11     3     4    1
    12     4     5   am
    13     5     6    2
    14     5    24    1
    15    24    25    1
    16    25    26    1
    17    26    27    1
    18    27    30    1
    19    30    31    1
    20    31    32   ar
    21    32    33   ar
    22    33    34   ar
    23    34    35   ar
    24    35    36    1
    25    35    37   ar
    26    27    28    1
    27    28    29    1
    28     4     7    1
    29     7     8    1
    30    12    13   ar
    31    13    14   ar
    32    14    15   ar
    33    15    16   ar
    34    16    17    1
    35    16    18   ar
    36    18    19   ar
    37    19     9   ar
    38     8     1    1
    39    19    13   ar
    40    29    24    1
    41    37    31   ar
    42    36    38    1
    43    36    39    1
@<TRIPOS>MOLECULE
*****
 39 43 0 0 0
SMALL
GASTEIGER

@<TRIPOS>ATOM
      1 C          61.1983   92.2987    2.8357 C.3     1  UNL1        0.0933
      2 C          61.7919   91.2827    3.7661 C.3     1  UNL1        0.0442
      3 C          60.9446   90.6596    4.8356 C.3     1  UNL1        0.0953
      4 N          59.5036   91.0524    4.9747 N.am    1  UNL1       -0.2794
      5 C          58.6563   90.4293    6.0442 C.2     1  UNL1        0.2252
      6 O          57.2154   90.8221    6.1833 O.2     1  UNL1       -0.2749
      7 C          58.9101   92.0683    4.0444 C.3     1  UNL1        0.0953
      8 C          59.7574   92.6914    2.9749 C.3     1  UNL1        0.0442
      9 N          63.9002   93.9865    0.6186 N.ar    1  UNL1       -0.2799
     10 C          63.4347   93.4594    1.9435 C.ar    1  UNL1        0.3315
     11 O          64.2203   93.4684    3.2213 O.2     1  UNL1       -0.2463
     12 N          62.0457   92.9218    1.7663 N.ar    1  UNL1       -0.2817
     13 C          61.6527   93.1165    0.3318 C.ar    1  UNL1        0.0798
     14 C          60.3992   92.7797   -0.4201 C.ar    1  UNL1        0.0211
     15 C          60.2920   93.1009   -1.8813 C.ar    1  UNL1        0.0312
     16 C          61.4382   93.7590   -2.5906 C.ar    1  UNL1        0.1417
     17 F          61.3309   94.0803   -4.0520 F       1  UNL1       -0.2041
     18 C          62.6916   94.0959   -1.8387 C.ar    1  UNL1        0.0484
     19 C          62.7989   93.7746   -0.3775 C.ar    1  UNL1        0.0819
     20 C          65.2331   94.6152    0.3388 C.3     1  UNL1        0.1105
     21 C          65.0754   96.8489    1.6562 C.3     1  UNL1        0.0020
     22 C          65.3845   96.1066    0.3899 C.3     1  UNL1        0.0228
     23 C          65.8449   96.8559   -0.8253 C.3     1  UNL1        0.0020
     24 C          59.2500   89.4134    6.9745 C.3     1  UNL1        0.0795
     25 C          60.1809   89.8500    8.0665 C.3     1  UNL1        0.0264
     26 C          60.7746   88.8339    8.9968 C.3     1  UNL1        0.0729
     27 N          60.4372   87.3814    8.8350 N.3     1  UNL1       -0.2689
     28 C          59.5063   86.9448    7.7429 C.3     1  UNL1        0.0729
     29 C          58.9126   87.9607    6.8127 C.3     1  UNL1        0.0264
     30 C          61.0309   86.3655    9.7653 C.3     1  UNL1        0.0993
     31 C          61.8890   86.8100   10.9125 C.ar    1  UNL1       -0.0018
     32 C          62.4463   85.7974   11.8686 C.ar    1  UNL1        0.0179
     33 C          63.3044   86.2419   13.0158 C.ar    1  UNL1        0.1000
     34 N          63.6052   87.6989   13.2069 N.ar    1  UNL1       -0.2296
     35 C          63.0478   88.7115   12.2508 C.ar    1  UNL1        0.1251
     36 N          63.3486   90.1685   12.4420 N.pl3   1  UNL1       -0.3426
     37 C          62.1897   88.2670   11.1036 C.ar    1  UNL1        0.0310
     38 H          63.9118   90.4602   13.1950 H       1  UNL1        0.1437
     39 H          62.9828   90.8331   11.8145 H       1  UNL1        0.1437
@<TRIPOS>BOND
     1    21    22    1
     2    22    23    1
     3    22    20    1
     4    20     9    1
     5     9    10   ar
     6    10    11    2
     7    10    12   ar
     8    12     1    1
     9     1     2    1
    10     2     3    1
    11     3     4    1
    12     4     5   am
    13     5     6    2
    14     5    24    1
    15    24    25    1
    16    25    26    1
    17    26    27    1
    18    27    30    1
    19    30    31    1
    20    31    32   ar
    21    32    33   ar
    22    33    34   ar
    23    34    35   ar
    24    35    36    1
    25    35    37   ar
    26    27    28    1
    27    28    29    1
    28     4     7    1
    29     7     8    1
    30    12    13   ar
    31    13    14   ar
    32    14    15   ar
    33    15    16   ar
    34    16    17    1
    35    16    18   ar
    36    18    19   ar
    37    19     9   ar
    38     8     1    1
    39    19    13   ar
    40    29    24    1
    41    37    31   ar
    42    36    38    1
    43    36    39    1
@<TRIPOS>MOLECULE
*****
 39 43 0 0 0
SMALL
GASTEIGER

@<TRIPOS>ATOM
      1 C          60.5416   92.3263    3.3286 C.3     1  UNL1        0.0933
      2 C          61.3314   91.3747    4.1775 C.3     1  UNL1        0.0442
      3 C          60.6376   90.5403    5.2131 C.3     1  UNL1        0.0953
      4 N          59.1539   90.6576    5.3998 N.am    1  UNL1       -0.2794
      5 C          58.4600   89.8232    6.4354 C.2     1  UNL1        0.2252
      6 O          56.9763   89.9405    6.6221 O.2     1  UNL1       -0.2749
      7 C          58.3640   91.6092    4.5509 C.3     1  UNL1        0.0953
      8 C          59.0579   92.4435    3.5154 C.3     1  UNL1        0.0442
      9 N          62.9659   94.2745    1.0065 N.ar    1  UNL1       -0.2799
     10 C          62.7157   93.3758    2.1812 C.ar    1  UNL1        0.3315
     11 O          63.7620   92.7944    3.0852 O.2     1  UNL1       -0.2463
     12 N          61.2354   93.1607    2.2931 N.ar    1  UNL1       -0.2817
     13 C          60.5708   93.9264    1.1876 C.ar    1  UNL1        0.0798
     14 C          59.1300   94.0857    0.8023 C.ar    1  UNL1        0.0211
     15 C          58.7586   94.9334   -0.3781 C.ar    1  UNL1        0.0312
     16 C          59.8282   95.6218   -1.1732 C.ar    1  UNL1        0.1417
     17 F          59.4568   96.4695   -2.3537 F       1  UNL1       -0.2041
     18 C          61.2690   95.4625   -0.7880 C.ar    1  UNL1        0.0484
     19 C          61.6403   94.6148    0.3925 C.ar    1  UNL1        0.0819
     20 C          64.3064   94.7495    0.5296 C.3     1  UNL1        0.1105
     21 C          64.2209   93.7823   -1.8801 C.3     1  UNL1        0.0020
     22 C          64.5708   94.8970   -0.9394 C.3     1  UNL1        0.0228
     23 C          65.1852   96.1593   -1.4679 C.3     1  UNL1        0.0020
     24 C          59.2499   88.8717    7.2842 C.3     1  UNL1        0.0795
     25 C          59.2202   87.4013    6.9889 C.3     1  UNL1        0.0264
     26 C          60.0101   86.4497    7.8379 C.3     1  UNL1        0.0729
     27 N          60.8298   86.9686    8.9820 N.3     1  UNL1       -0.2689
     28 C          60.8595   88.4389    9.2772 C.3     1  UNL1        0.0729
     29 C          60.0695   89.3904    8.4284 C.3     1  UNL1        0.0264
     30 C          61.6197   86.0170    9.8308 C.3     1  UNL1        0.0993
     31 C          62.3152   86.5122   11.0641 C.ar    1  UNL1       -0.0018
     32 C          62.5723   87.9792   11.2423 C.ar    1  UNL1        0.0179
     33 C          63.2679   88.4743   12.4756 C.ar    1  UNL1        0.1000
     34 N          63.7063   87.5025   13.5307 N.ar    1  UNL1       -0.2296
     35 C          63.4492   86.0355   13.3525 C.ar    1  UNL1        0.1251
     36 N          63.8877   85.0637   14.4076 N.pl3   1  UNL1       -0.3426
     37 C          62.7537   85.5403   12.1192 C.ar    1  UNL1        0.0310
     38 H          64.3442   85.3887   15.2170 H       1  UNL1        0.1437
     39 H          63.7190   84.1008   14.2907 H       1  UNL1        0.1437
@<TRIPOS>BOND
     1    21    22    1
     2    22    23    1
     3    22    20    1
     4    20     9    1
     5     9    10   ar
     6    10    11    2
     7    10    12   ar
     8    12     1    1
     9     1     2    1
    10     2     3    1
    11     3     4    1
    12     4     5   am
    13     5     6    2
    14     5    24    1
    15    24    25    1
    16    25    26    1
    17    26    27    1
    18    27    30    1
    19    30    31    1
    20    31    32   ar
    21    32    33   ar
    22    33    34   ar
    23    34    35   ar
    24    35    36    1
    25    35    37   ar
    26    27    28    1
    27    28    29    1
    28     4     7    1
    29     7     8    1
    30    12    13   ar
    31    13    14   ar
    32    14    15   ar
    33    15    16   ar
    34    16    17    1
    35    16    18   ar
    36    18    19   ar
    37    19     9   ar
    38     8     1    1
    39    19    13   ar
    40    29    24    1
    41    37    31   ar
    42    36    38    1
    43    36    39    1
@<TRIPOS>MOLECULE
*****
 39 43 0 0 0
SMALL
GASTEIGER

@<TRIPOS>ATOM
      1 C          61.1017   92.3787    2.6286 C.3     1  UNL1        0.0933
      2 C          61.7507   91.5862    3.7244 C.3     1  UNL1        0.0442
      3 C          60.9120   90.9844    4.8127 C.3     1  UNL1        0.0953
      4 N          59.4242   91.1751    4.8052 N.am    1  UNL1       -0.2794
      5 C          58.5854   90.5734    5.8935 C.2     1  UNL1        0.2252
      6 O          57.0976   90.7641    5.8861 O.2     1  UNL1       -0.2749
      7 C          58.7752   91.9677    3.7095 C.3     1  UNL1        0.0953
      8 C          59.6139   92.5694    2.6212 C.3     1  UNL1        0.0442
      9 N          62.8439   93.5196   -0.6468 N.ar    1  UNL1       -0.2799
     10 C          61.8067   92.7080    0.0714 C.ar    1  UNL1        0.3315
     11 O          60.8108   91.7859   -0.5673 O.2     1  UNL1       -0.2463
     12 N          61.9404   92.9805    1.5403 N.ar    1  UNL1       -0.2817
     13 C          63.0602   93.9604    1.7300 C.ar    1  UNL1        0.0798
     14 C          63.6435   94.5924    2.9590 C.ar    1  UNL1        0.0211
     15 C          64.7851   95.5575    2.8361 C.ar    1  UNL1        0.0312
     16 C          65.3435   95.8907    1.4844 C.ar    1  UNL1        0.1417
     17 F          66.4852   96.8559    1.3616 F       1  UNL1       -0.2041
     18 C          64.7602   95.2587    0.2554 C.ar    1  UNL1        0.0484
     19 C          63.6185   94.2936    0.3783 C.ar    1  UNL1        0.0819
     20 C          63.0671   93.5515   -2.1298 C.3     1  UNL1        0.1105
     21 C          62.6854   95.7470   -3.4653 C.3     1  UNL1        0.0020
     22 C          62.1963   94.4071   -3.0011 C.3     1  UNL1        0.0228
     23 C          60.8362   93.9229   -3.4085 C.3     1  UNL1        0.0020
     24 C          59.2345   89.7809    6.9892 C.3     1  UNL1        0.0795
     25 C          60.1102   90.4683    7.9945 C.3     1  UNL1        0.0264
     26 C          60.7593   89.6757    9.0902 C.3     1  UNL1        0.0729
     27 N          60.5327   88.1956    9.1806 N.3     1  UNL1       -0.2689
     28 C          59.6570   87.5082    8.1753 C.3     1  UNL1        0.0729
     29 C          59.0080   88.3008    7.0796 C.3     1  UNL1        0.0264
     30 C          61.1818   87.4031   10.2762 C.3     1  UNL1        0.0993
     31 C          62.0128   86.2003    9.9407 C.ar    1  UNL1       -0.0018
     32 C          62.4499   85.9616    8.5258 C.ar    1  UNL1        0.0179
     33 C          63.2809   84.7588    8.1903 C.ar    1  UNL1        0.1000
     34 N          63.6748   83.7946    9.2697 N.ar    1  UNL1       -0.2296
     35 C          63.2377   84.0332   10.6847 C.ar    1  UNL1        0.1251
     36 N          63.6316   83.0690   11.7640 N.pl3   1  UNL1       -0.3426
     37 C          62.4067   85.2361   11.0202 C.ar    1  UNL1        0.0310
     38 H          64.1770   82.2795   11.5437 H       1  UNL1        0.1437
     39 H          63.3447   83.2256   12.6927 H       1  UNL1        0.1437
@<TRIPOS>BOND
     1    21    22    1
     2    22    23    1
     3    22    20    1
     4    20     9    1
     5     9    10   ar
     6    10    11    2
     7    10    12   ar
     8    12     1    1
     9     1     2    1
    10     2     3    1
    11     3     4    1
    12     4     5   am
    13     5     6    2
    14     5    24    1
    15    24    25    1
    16    25    26    1
    17    26    27    1
    18    27    30    1
    19    30    31    1
    20    31    32   ar
    21    32    33   ar
    22    33    34   ar
    23    34    35   ar
    24    35    36    1
    25    35    37   ar
    26    27    28    1
    27    28    29    1
    28     4     7    1
    29     7     8    1
    30    12    13   ar
    31    13    14   ar
    32    14    15   ar
    33    15    16   ar
    34    16    17    1
    35    16    18   ar
    36    18    19   ar
    37    19     9   ar
    38     8     1    1
    39    19    13   ar
    40    29    24    1
    41    37    31   ar
    42    36    38    1
    43    36    39    1
