@<TRIPOS>MOLECULE
*****
 31 34 0 0 0
SMALL
GASTEIGER

@<TRIPOS>ATOM
      1 N          44.6632   76.8287   19.1296 N.am    1  UNL1       -0.2534
      2 C          44.9355   75.3848   19.4309 C.2     1  UNL1        0.3087
      3 O          45.2430   74.9568   20.8352 O.2     1  UNL1       -0.2522
      4 N          44.9005   74.3689   18.3278 N.am    1  UNL1       -0.2639
      5 C          44.6090   74.6461   16.8828 C.3     1  UNL1        0.0950
      6 C          44.6791   73.3459   16.1381 C.3     1  UNL1        0.0219
      7 C          44.5423   72.7137   14.7847 C.3     1  UNL1        0.0061
      8 C          44.7925   71.2421   14.9331 C.3     1  UNL1        0.0224
      9 C          45.0839   70.9649   16.3782 C.3     1  UNL1        0.0061
     10 C          45.0138   72.2651   17.1229 C.3     1  UNL1        0.0219
     11 C          45.1507   72.8974   18.4762 C.3     1  UNL1        0.0950
     12 H          44.4614   77.1097   18.2078 H       1  UNL1        0.1578
     13 C          45.7743   78.8894   20.2560 C.ar    1  UNL1        0.0458
     14 C          45.8093   79.9054   21.3590 C.ar    1  UNL1        0.0055
     15 C          44.7683   79.8766   22.4385 C.ar    1  UNL1        0.0208
     16 C          43.6922   78.8319   22.4151 C.ar    1  UNL1        0.1003
     17 N          43.6572   77.8159   21.3121 N.ar    1  UNL1       -0.2289
     18 C          44.6983   77.8447   20.2326 C.ar    1  UNL1        0.1363
     19 O          47.8685   77.8514   19.1214 O.co2   1  UNL1       -0.5445
     20 C          46.8154   78.9182   19.1765 C.2     1  UNL1        0.0756
     21 O          46.8035   80.0139   18.1521 O.co2   1  UNL1       -0.5445
     22 C          44.7574   70.2263   13.8301 C.ar    1  UNL1       -0.0186
     23 C          43.6723   70.2793   12.7958 C.ar    1  UNL1       -0.0043
     24 C          43.6372   69.2633   11.6928 C.ar    1  UNL1       -0.0003
     25 C          44.6872   68.1944   11.6240 C.ar    1  UNL1       -0.0001
     26 C          45.7724   68.1414   12.6583 C.ar    1  UNL1        0.0035
     27 C          45.8075   69.1573   13.7613 C.ar    1  UNL1        0.0675
     28 C          46.8926   69.1043   14.7956 C.3     1  UNL1        0.4183
     29 F          47.9777   69.0513   15.8298 F       1  UNL1       -0.1659
     30 F          47.3026   70.5019   14.4370 F       1  UNL1       -0.1659
     31 F          46.4826   67.7067   15.1541 F       1  UNL1       -0.1659
@<TRIPOS>UNITY_ATOM_ATTR
19 1
charge -1
@<TRIPOS>BOND
     1    19    20   ar
     2    20    21   ar
     3    20    13    1
     4    13    14   ar
     5    14    15   ar
     6    15    16   ar
     7    16    17   ar
     8    17    18   ar
     9    18     1    1
    10     1     2   am
    11     2     3    2
    12     2     4   am
    13     4     5    1
    14     6     5    1
    15     6     7    1
    16     7     8    1
    17     8    22    1
    18    22    23   ar
    19    23    24   ar
    20    24    25   ar
    21    25    26   ar
    22    26    27   ar
    23    27    28    1
    24    28    29    1
    25    28    30    1
    26    28    31    1
    27     8     9    1
    28    10     9    1
    29    10    11    1
    30    18    13   ar
    31    11     4    1
    32    10     6    1
    33    27    22   ar
    34     1    12    1
@<TRIPOS>MOLECULE
*****
 31 34 0 0 0
SMALL
GASTEIGER

@<TRIPOS>ATOM
      1 N          65.2046   90.8711   13.0968 N.am    1  UNL1       -0.2534
      2 C          64.1429   90.2367   12.2480 C.2     1  UNL1        0.3087
      3 O          63.4266   91.0498   11.2109 O.2     1  UNL1       -0.2522
      4 N          63.7976   88.7892   12.4365 N.am    1  UNL1       -0.2639
      5 C          64.4251   87.8550   13.4281 C.3     1  UNL1        0.0950
      6 C          63.7794   86.5102   13.2708 C.3     1  UNL1        0.0219
      7 C          63.7682   85.1017   13.7864 C.3     1  UNL1        0.0061
      8 C          62.7347   84.3343   13.0163 C.3     1  UNL1        0.0224
      9 C          62.1073   85.2686   12.0246 C.3     1  UNL1        0.0061
     10 C          62.7529   86.6134   12.1819 C.3     1  UNL1        0.0219
     11 C          62.7642   88.0219   11.6663 C.3     1  UNL1        0.0950
     12 H          65.6747   90.3375   13.7776 H       1  UNL1        0.1578
     13 C          66.0251   93.1342   14.0743 C.ar    1  UNL1        0.0458
     14 C          66.3705   94.5817   13.8858 C.ar    1  UNL1        0.0055
     15 C          66.2407   95.2136   12.5316 C.ar    1  UNL1        0.0208
     16 C          65.7656   94.3980   11.3658 C.ar    1  UNL1        0.1003
     17 N          65.4202   92.9506   11.5543 N.ar    1  UNL1       -0.2289
     18 C          65.5500   92.3187   12.9085 C.ar    1  UNL1        0.1363
     19 O          67.5073   92.3525   16.0597 O.co2   1  UNL1       -0.5445
     20 C          66.1549   92.5023   15.4285 C.2     1  UNL1        0.0756
     21 O          64.9322   92.0202   16.1514 O.co2   1  UNL1       -0.5445
     22 C          62.3894   82.8868   13.2046 C.ar    1  UNL1       -0.0186
     23 C          61.4521   82.4760   14.3012 C.ar    1  UNL1       -0.0043
     24 C          61.1067   81.0285   14.4897 C.ar    1  UNL1       -0.0003
     25 C          61.6987   79.9918   13.5815 C.ar    1  UNL1       -0.0001
     26 C          62.6361   80.4027   12.4848 C.ar    1  UNL1        0.0035
     27 C          62.9814   81.8501   12.2964 C.ar    1  UNL1        0.0675
     28 C          63.9188   82.2610   11.1998 C.3     1  UNL1        0.4183
     29 F          64.8561   82.6719   10.1032 F       1  UNL1       -0.1659
     30 F          65.0231   82.4181   12.2026 F       1  UNL1       -0.1659
     31 F          62.8144   82.1039   10.1970 F       1  UNL1       -0.1659
@<TRIPOS>UNITY_ATOM_ATTR
19 1
charge -1
@<TRIPOS>BOND
     1    19    20   ar
     2    20    21   ar
     3    20    13    1
     4    13    14   ar
     5    14    15   ar
     6    15    16   ar
     7    16    17   ar
     8    17    18   ar
     9    18     1    1
    10     1     2   am
    11     2     3    2
    12     2     4   am
    13     4     5    1
    14     6     5    1
    15     6     7    1
    16     7     8    1
    17     8    22    1
    18    22    23   ar
    19    23    24   ar
    20    24    25   ar
    21    25    26   ar
    22    26    27   ar
    23    27    28    1
    24    28    29    1
    25    28    30    1
    26    28    31    1
    27     8     9    1
    28    10     9    1
    29    10    11    1
    30    18    13   ar
    31    11     4    1
    32    10     6    1
    33    27    22   ar
    34     1    12    1
@<TRIPOS>MOLECULE
*****
 31 34 0 0 0
SMALL
GASTEIGER

@<TRIPOS>ATOM
      1 N          65.6721   93.3417   10.3454 N.am    1  UNL1       -0.2534
      2 C          65.8559   93.3697   11.8338 C.2     1  UNL1        0.3087
      3 O          66.5156   94.5485   12.4859 O.2     1  UNL1       -0.2522
      4 N          65.3800   92.2190   12.6701 N.am    1  UNL1       -0.2639
      5 C          64.7063   90.9790   12.1619 C.3     1  UNL1        0.0950
      6 C          64.4042   90.0999   13.3392 C.3     1  UNL1        0.0219
      7 C          63.8011   88.7902   13.7527 C.3     1  UNL1        0.0061
      8 C          63.9154   88.6775   15.2441 C.3     1  UNL1        0.0224
      9 C          64.5892   89.9177   15.7523 C.3     1  UNL1        0.0061
     10 C          64.8913   90.7967   14.5750 C.3     1  UNL1        0.0219
     11 C          65.4943   92.1064   14.1615 C.3     1  UNL1        0.0950
     12 H          65.2391   92.5680    9.9174 H       1  UNL1        0.1578
     13 C          67.4899   94.4301    8.8418 C.ar    1  UNL1        0.0458
     14 C          67.9657   95.5808    8.0054 C.ar    1  UNL1        0.0055
     15 C          67.0995   96.7937    7.8363 C.ar    1  UNL1        0.0208
     16 C          65.7576   96.8560    8.5035 C.ar    1  UNL1        0.1003
     17 N          65.2818   95.7053    9.3399 N.ar    1  UNL1       -0.2289
     18 C          66.1480   94.4924    9.5090 C.ar    1  UNL1        0.1363
     19 O          68.8256   92.4570    7.8061 O.co2   1  UNL1       -0.5445
     20 C          68.3561   93.2172    9.0109 C.2     1  UNL1        0.0756
     21 O          68.7528   92.7646   10.3848 O.co2   1  UNL1       -0.5445
     22 C          63.4396   87.5269   16.0804 C.ar    1  UNL1       -0.0186
     23 C          62.8641   87.7774   17.4428 C.ar    1  UNL1       -0.0043
     24 C          62.3882   86.6267   18.2791 C.ar    1  UNL1       -0.0003
     25 C          62.4878   85.2255   17.7531 C.ar    1  UNL1       -0.0001
     26 C          63.0633   84.9750   16.3906 C.ar    1  UNL1        0.0035
     27 C          63.5391   86.1256   15.5543 C.ar    1  UNL1        0.0675
     28 C          64.1146   85.8752   14.1919 C.3     1  UNL1        0.4183
     29 F          64.6900   85.6247   12.8296 F       1  UNL1       -0.1659
     30 F          62.7326   85.6701   13.6459 F       1  UNL1       -0.1659
     31 F          65.4965   86.0803   14.7379 F       1  UNL1       -0.1659
@<TRIPOS>UNITY_ATOM_ATTR
19 1
charge -1
@<TRIPOS>BOND
     1    19    20   ar
     2    20    21   ar
     3    20    13    1
     4    13    14   ar
     5    14    15   ar
     6    15    16   ar
     7    16    17   ar
     8    17    18   ar
     9    18     1    1
    10     1     2   am
    11     2     3    2
    12     2     4   am
    13     4     5    1
    14     6     5    1
    15     6     7    1
    16     7     8    1
    17     8    22    1
    18    22    23   ar
    19    23    24   ar
    20    24    25   ar
    21    25    26   ar
    22    26    27   ar
    23    27    28    1
    24    28    29    1
    25    28    30    1
    26    28    31    1
    27     8     9    1
    28    10     9    1
    29    10    11    1
    30    18    13   ar
    31    11     4    1
    32    10     6    1
    33    27    22   ar
    34     1    12    1
@<TRIPOS>MOLECULE
*****
 31 34 0 0 0
SMALL
GASTEIGER

@<TRIPOS>ATOM
      1 N          65.1133   91.8248   12.3708 N.am    1  UNL1       -0.2534
      2 C          64.0798   91.0887   11.5708 C.2     1  UNL1        0.3087
      3 O          63.3641   91.7831   10.4503 O.2     1  UNL1       -0.2522
      4 N          63.7621   89.6582   11.8914 N.am    1  UNL1       -0.2639
      5 C          64.3924   88.8369   12.9768 C.3     1  UNL1        0.0950
      6 C          63.7781   87.4690   12.9390 C.3     1  UNL1        0.0219
      7 C          63.7879   86.1160   13.5865 C.3     1  UNL1        0.0061
      8 C          62.7841   85.2556   12.8779 C.3     1  UNL1        0.0224
      9 C          62.1538   86.0770   11.7924 C.3     1  UNL1        0.0061
     10 C          62.7681   87.4449   11.8302 C.3     1  UNL1        0.0219
     11 C          62.7582   88.7979   11.1827 C.3     1  UNL1        0.0950
     12 H          65.5831   91.3691   13.1062 H       1  UNL1        0.1578
     13 C          66.1614   94.1033   13.0490 C.ar    1  UNL1        0.0458
     14 C          66.4792   95.5338   12.7285 C.ar    1  UNL1        0.0055
     15 C          66.0667   96.1162   11.4092 C.ar    1  UNL1        0.0208
     16 C          65.3364   95.2683   10.4104 C.ar    1  UNL1        0.1003
     17 N          65.0186   93.8378   10.7310 N.ar    1  UNL1       -0.2289
     18 C          65.4311   93.2554   12.0503 C.ar    1  UNL1        0.1363
     19 O          67.9921   93.6570   14.8378 O.co2   1  UNL1       -0.5445
     20 C          66.5739   93.5209   14.3683 C.2     1  UNL1        0.0756
     21 O          65.5683   92.8022   15.2182 O.co2   1  UNL1       -0.5445
     22 C          62.4663   83.8252   13.1984 C.ar    1  UNL1       -0.0186
     23 C          62.3644   82.8142   12.0950 C.ar    1  UNL1       -0.0043
     24 C          62.0466   81.3836   12.4155 C.ar    1  UNL1       -0.0003
     25 C          61.8308   80.9642   13.8394 C.ar    1  UNL1       -0.0001
     26 C          61.9327   81.9753   14.9428 C.ar    1  UNL1        0.0035
     27 C          62.2505   83.4057   14.6223 C.ar    1  UNL1        0.0675
     28 C          62.3524   84.4167   15.7256 C.3     1  UNL1        0.4183
     29 F          62.4544   85.4278   16.8290 F       1  UNL1       -0.1659
     30 F          60.9371   84.8412   15.4674 F       1  UNL1       -0.1659
     31 F          63.7677   83.9923   15.9838 F       1  UNL1       -0.1659
@<TRIPOS>UNITY_ATOM_ATTR
19 1
charge -1
@<TRIPOS>BOND
     1    19    20   ar
     2    20    21   ar
     3    20    13    1
     4    13    14   ar
     5    14    15   ar
     6    15    16   ar
     7    16    17   ar
     8    17    18   ar
     9    18     1    1
    10     1     2   am
    11     2     3    2
    12     2     4   am
    13     4     5    1
    14     6     5    1
    15     6     7    1
    16     7     8    1
    17     8    22    1
    18    22    23   ar
    19    23    24   ar
    20    24    25   ar
    21    25    26   ar
    22    26    27   ar
    23    27    28    1
    24    28    29    1
    25    28    30    1
    26    28    31    1
    27     8     9    1
    28    10     9    1
    29    10    11    1
    30    18    13   ar
    31    11     4    1
    32    10     6    1
    33    27    22   ar
    34     1    12    1
@<TRIPOS>MOLECULE
*****
 31 34 0 0 0
SMALL
GASTEIGER

@<TRIPOS>ATOM
      1 N          44.7898   78.0436   17.5539 N.am    1  UNL1       -0.2534
      2 C          44.2514   76.7532   18.0969 C.2     1  UNL1        0.3087
      3 O          43.6333   76.7143   19.4631 O.2     1  UNL1       -0.2522
      4 N          44.3309   75.5018   17.2738 N.am    1  UNL1       -0.2639
      5 C          44.9179   75.3871   15.8982 C.3     1  UNL1        0.0950
      6 C          44.7872   73.9598   15.4560 C.3     1  UNL1        0.0219
      7 C          45.0692   73.0067   14.3325 C.3     1  UNL1        0.0061
      8 C          44.5758   71.6502   14.7405 C.3     1  UNL1        0.0224
      9 C          43.9888   71.7649   16.1161 C.3     1  UNL1        0.0061
     10 C          44.1195   73.1922   16.5583 C.3     1  UNL1        0.0219
     11 C          43.8375   74.1453   17.6818 C.3     1  UNL1        0.0950
     12 H          45.1955   78.0692   16.6572 H       1  UNL1        0.1578
     13 C          44.6202   80.6319   17.7025 C.ar    1  UNL1        0.0458
     14 C          44.5407   81.8833   18.5257 C.ar    1  UNL1        0.0055
     15 C          44.5512   81.7980   20.0232 C.ar    1  UNL1        0.0208
     16 C          44.6413   80.4612   20.6977 C.ar    1  UNL1        0.1003
     17 N          44.7209   79.2098   19.8745 N.ar    1  UNL1       -0.2289
     18 C          44.7103   79.2951   18.3770 C.ar    1  UNL1        0.1363
     19 O          45.5702   81.6276   15.4989 O.co2   1  UNL1       -0.5445
     20 C          44.6096   80.7173   16.2050 C.2     1  UNL1        0.0756
     21 O          43.6385   79.8923   15.4136 O.co2   1  UNL1       -0.5445
     22 C          44.6553   70.3988   13.9174 C.ar    1  UNL1       -0.0186
     23 C          43.7052   70.1904   12.7755 C.ar    1  UNL1       -0.0043
     24 C          43.7847   68.9390   11.9524 C.ar    1  UNL1       -0.0003
     25 C          44.8144   67.8959   12.2711 C.ar    1  UNL1       -0.0001
     26 C          45.7646   68.1042   13.4130 C.ar    1  UNL1        0.0035
     27 C          45.6851   69.3556   14.2361 C.ar    1  UNL1        0.0675
     28 C          46.6352   69.5640   15.3779 C.3     1  UNL1        0.4183
     29 F          47.5853   69.7723   16.5198 F       1  UNL1       -0.1659
     30 F          47.6151   70.2108   14.4445 F       1  UNL1       -0.1659
     31 F          45.6553   68.9171   16.3113 F       1  UNL1       -0.1659
@<TRIPOS>UNITY_ATOM_ATTR
19 1
charge -1
@<TRIPOS>BOND
     1    19    20   ar
     2    20    21   ar
     3    20    13    1
     4    13    14   ar
     5    14    15   ar
     6    15    16   ar
     7    16    17   ar
     8    17    18   ar
     9    18     1    1
    10     1     2   am
    11     2     3    2
    12     2     4   am
    13     4     5    1
    14     6     5    1
    15     6     7    1
    16     7     8    1
    17     8    22    1
    18    22    23   ar
    19    23    24   ar
    20    24    25   ar
    21    25    26   ar
    22    26    27   ar
    23    27    28    1
    24    28    29    1
    25    28    30    1
    26    28    31    1
    27     8     9    1
    28    10     9    1
    29    10    11    1
    30    18    13   ar
    31    11     4    1
    32    10     6    1
    33    27    22   ar
    34     1    12    1
@<TRIPOS>MOLECULE
*****
 31 34 0 0 0
SMALL
GASTEIGER

@<TRIPOS>ATOM
      1 N          65.1549   92.7479   10.8914 N.am    1  UNL1       -0.2534
      2 C          65.3558   92.2444   12.2900 C.2     1  UNL1        0.3087
      3 O          66.0377   93.1098   13.3080 O.2     1  UNL1       -0.2522
      4 N          64.8749   90.8755   12.6707 N.am    1  UNL1       -0.2639
      5 C          64.1799   89.9019   11.7656 C.3     1  UNL1        0.0950
      6 C          63.8800   88.6647   12.5588 C.3     1  UNL1        0.0219
      7 C          63.2651   87.2982   12.4897 C.3     1  UNL1        0.0061
      8 C          63.3947   86.6626   13.8422 C.3     1  UNL1        0.0224
      9 C          64.0898   87.6363   14.7473 C.3     1  UNL1        0.0061
     10 C          64.3897   88.8736   13.9541 C.3     1  UNL1        0.0219
     11 C          65.0046   90.2400   14.0232 C.3     1  UNL1        0.0950
     12 H          64.7074   92.1800   10.2233 H       1  UNL1        0.1578
     13 C          66.9926   94.2908    9.8951 C.ar    1  UNL1        0.0458
     14 C          67.4734   95.6597    9.5145 C.ar    1  UNL1        0.0055
     15 C          66.5975   96.8545    9.7493 C.ar    1  UNL1        0.0208
     16 C          65.2408   96.6806   10.3649 C.ar    1  UNL1        0.1003
     17 N          64.7600   95.3117   10.7456 N.ar    1  UNL1       -0.2289
     18 C          65.6359   94.1168   10.5107 C.ar    1  UNL1        0.1363
     19 O          68.2957   92.7415    8.2668 O.co2   1  UNL1       -0.5445
     20 C          67.8685   93.0960    9.6603 C.2     1  UNL1        0.0756
     21 O          68.3172   92.2556   10.8189 O.co2   1  UNL1       -0.5445
     22 C          62.9138   85.2938   14.2229 C.ar    1  UNL1       -0.0186
     23 C          62.6065   84.9786   15.6568 C.ar    1  UNL1       -0.0043
     24 C          62.1256   83.6098   16.0376 C.ar    1  UNL1       -0.0003
     25 C          61.9520   82.5560   14.9842 C.ar    1  UNL1       -0.0001
     26 C          62.2593   82.8712   13.5502 C.ar    1  UNL1        0.0035
     27 C          62.7402   84.2399   13.1696 C.ar    1  UNL1        0.0675
     28 C          63.0475   84.5551   11.7356 C.3     1  UNL1        0.4183
     29 F          63.3548   84.8702   10.3017 F       1  UNL1       -0.1659
     30 F          64.4634   84.1039   11.9399 F       1  UNL1       -0.1659
     31 F          61.6317   85.0063   11.5314 F       1  UNL1       -0.1659
@<TRIPOS>UNITY_ATOM_ATTR
19 1
charge -1
@<TRIPOS>BOND
     1    19    20   ar
     2    20    21   ar
     3    20    13    1
     4    13    14   ar
     5    14    15   ar
     6    15    16   ar
     7    16    17   ar
     8    17    18   ar
     9    18     1    1
    10     1     2   am
    11     2     3    2
    12     2     4   am
    13     4     5    1
    14     6     5    1
    15     6     7    1
    16     7     8    1
    17     8    22    1
    18    22    23   ar
    19    23    24   ar
    20    24    25   ar
    21    25    26   ar
    22    26    27   ar
    23    27    28    1
    24    28    29    1
    25    28    30    1
    26    28    31    1
    27     8     9    1
    28    10     9    1
    29    10    11    1
    30    18    13   ar
    31    11     4    1
    32    10     6    1
    33    27    22   ar
    34     1    12    1
@<TRIPOS>MOLECULE
*****
 31 34 0 0 0
SMALL
GASTEIGER

@<TRIPOS>ATOM
      1 N          64.9449   90.6861   13.0696 N.am    1  UNL1       -0.2534
      2 C          65.0252   89.7400   14.2308 C.2     1  UNL1        0.3087
      3 O          65.6133   90.1983   15.5323 O.2     1  UNL1       -0.2522
      4 N          64.5174   88.3356   14.0904 N.am    1  UNL1       -0.2639
      5 C          63.9067   87.7379   12.8576 C.3     1  UNL1        0.0950
      6 C          63.5431   86.3152   13.1635 C.3     1  UNL1        0.0219
      7 C          62.9409   85.0665   12.5906 C.3     1  UNL1        0.0061
      8 C          62.9546   84.0131   13.6585 C.3     1  UNL1        0.0224
      9 C          63.5653   84.6108   14.8913 C.3     1  UNL1        0.0061
     10 C          63.9290   86.0335   14.5854 C.3     1  UNL1        0.0219
     11 C          64.5312   87.2822   15.1583 C.3     1  UNL1        0.0950
     12 H          64.5589   90.3853   12.2153 H       1  UNL1        0.1578
     13 C          65.5898   92.9631   11.9975 C.ar    1  UNL1        0.0458
     14 C          66.0976   94.3676   12.1379 C.ar    1  UNL1        0.0055
     15 C          66.4681   94.8994   13.4906 C.ar    1  UNL1        0.0208
     16 C          66.3309   94.0270   14.7030 C.ar    1  UNL1        0.1003
     17 N          65.8231   92.6225   14.5626 N.ar    1  UNL1       -0.2289
     18 C          65.4526   92.0906   13.2099 C.ar    1  UNL1        0.1363
     19 O          63.8740   91.8042   10.4282 O.co2   1  UNL1       -0.5445
     20 C          65.2193   92.4312   10.6448 C.2     1  UNL1        0.0756
     21 O          66.1942   92.5264    9.5088 O.co2   1  UNL1       -0.5445
     22 C          62.4469   82.6087   13.5181 C.ar    1  UNL1       -0.0186
     23 C          61.3984   82.0928   14.4586 C.ar    1  UNL1       -0.0043
     24 C          60.8906   80.6883   14.3183 C.ar    1  UNL1       -0.0003
     25 C          61.4313   79.7998   13.2375 C.ar    1  UNL1       -0.0001
     26 C          62.4798   80.3158   12.2969 C.ar    1  UNL1        0.0035
     27 C          62.9876   81.7201   12.4373 C.ar    1  UNL1        0.0675
     28 C          64.0360   82.2361   11.4968 C.3     1  UNL1        0.4183
     29 F          65.0845   82.7521   10.5563 F       1  UNL1       -0.1659
     30 F          65.0982   81.9210   12.5080 F       1  UNL1       -0.1659
     31 F          62.9739   82.5513   10.4856 F       1  UNL1       -0.1659
@<TRIPOS>UNITY_ATOM_ATTR
19 1
charge -1
@<TRIPOS>BOND
     1    19    20   ar
     2    20    21   ar
     3    20    13    1
     4    13    14   ar
     5    14    15   ar
     6    15    16   ar
     7    16    17   ar
     8    17    18   ar
     9    18     1    1
    10     1     2   am
    11     2     3    2
    12     2     4   am
    13     4     5    1
    14     6     5    1
    15     6     7    1
    16     7     8    1
    17     8    22    1
    18    22    23   ar
    19    23    24   ar
    20    24    25   ar
    21    25    26   ar
    22    26    27   ar
    23    27    28    1
    24    28    29    1
    25    28    30    1
    26    28    31    1
    27     8     9    1
    28    10     9    1
    29    10    11    1
    30    18    13   ar
    31    11     4    1
    32    10     6    1
    33    27    22   ar
    34     1    12    1
@<TRIPOS>MOLECULE
*****
 31 34 0 0 0
SMALL
GASTEIGER

@<TRIPOS>ATOM
      1 N          63.0099   83.6362   13.8888 N.am    1  UNL1       -0.2534
      2 C          62.6592   84.7584   12.9573 C.2     1  UNL1        0.3087
      3 O          61.7287   84.5148   11.8063 O.2     1  UNL1       -0.2522
      4 N          63.2389   86.1243   13.1770 N.am    1  UNL1       -0.2639
      5 C          64.1780   86.5168   14.2788 C.3     1  UNL1        0.0950
      6 C          64.5008   87.9726   14.1160 C.3     1  UNL1        0.0219
      7 C          65.2807   89.1149   14.6964 C.3     1  UNL1        0.0061
      8 C          65.0231   90.3282   13.8528 C.3     1  UNL1        0.0224
      9 C          64.0839   89.9357   12.7510 C.3     1  UNL1        0.0061
     10 C          63.7611   88.4799   12.9137 C.3     1  UNL1        0.0219
     11 C          62.9812   87.3375   12.3333 C.3     1  UNL1        0.0950
     12 H          63.6205   83.7961   14.6442 H       1  UNL1        0.1578
     13 C          62.9431   81.4082   12.5540 C.ar    1  UNL1        0.0458
     14 C          62.3633   80.0423   12.3345 C.ar    1  UNL1        0.0055
     15 C          61.2708   79.5385   13.2303 C.ar    1  UNL1        0.0208
     16 C          60.7579   80.4005   14.3455 C.ar    1  UNL1        0.1003
     17 N          61.3376   81.7664   14.5650 N.ar    1  UNL1       -0.2289
     18 C          62.4302   82.2702   13.6692 C.ar    1  UNL1        0.1363
     19 O          63.8779   81.8382   10.1683 O.co2   1  UNL1       -0.5445
     20 C          64.0356   81.9121   11.6582 C.2     1  UNL1        0.0756
     21 O          65.2860   82.4897   12.2523 O.co2   1  UNL1       -0.5445
     22 C          65.6027   91.6940   14.0724 C.ar    1  UNL1       -0.0186
     23 C          66.0839   92.0943   15.4355 C.ar    1  UNL1       -0.0043
     24 C          66.6636   93.4603   15.6552 C.ar    1  UNL1       -0.0003
     25 C          66.7622   94.4259   14.5116 C.ar    1  UNL1       -0.0001
     26 C          66.2810   94.0256   13.1483 C.ar    1  UNL1        0.0035
     27 C          65.7013   92.6598   12.9288 C.ar    1  UNL1        0.0675
     28 C          65.2202   92.2595   11.5656 C.3     1  UNL1        0.4183
     29 F          64.7390   91.8592   10.2024 F       1  UNL1       -0.1659
     30 F          66.6349   91.9920   11.1448 F       1  UNL1       -0.1659
     31 F          63.8055   92.5269   11.9864 F       1  UNL1       -0.1659
@<TRIPOS>UNITY_ATOM_ATTR
19 1
charge -1
@<TRIPOS>BOND
     1    19    20   ar
     2    20    21   ar
     3    20    13    1
     4    13    14   ar
     5    14    15   ar
     6    15    16   ar
     7    16    17   ar
     8    17    18   ar
     9    18     1    1
    10     1     2   am
    11     2     3    2
    12     2     4   am
    13     4     5    1
    14     6     5    1
    15     6     7    1
    16     7     8    1
    17     8    22    1
    18    22    23   ar
    19    23    24   ar
    20    24    25   ar
    21    25    26   ar
    22    26    27   ar
    23    27    28    1
    24    28    29    1
    25    28    30    1
    26    28    31    1
    27     8     9    1
    28    10     9    1
    29    10    11    1
    30    18    13   ar
    31    11     4    1
    32    10     6    1
    33    27    22   ar
    34     1    12    1
@<TRIPOS>MOLECULE
*****
 31 34 0 0 0
SMALL
GASTEIGER

@<TRIPOS>ATOM
      1 N          63.2421   86.0580   13.3505 N.am    1  UNL1       -0.2534
      2 C          62.7316   86.8455   12.1804 C.2     1  UNL1        0.3087
      3 O          61.7508   86.2256   11.2298 O.2     1  UNL1       -0.2522
      4 N          63.2019   88.2528   11.9609 N.am    1  UNL1       -0.2639
      5 C          64.1750   89.0018   12.8225 C.3     1  UNL1        0.0950
      6 C          64.3561   90.3701   12.2354 C.3     1  UNL1        0.0219
      7 C          65.0695   91.6787   12.4050 C.3     1  UNL1        0.0061
      8 C          64.6493   92.5843   11.2854 C.3     1  UNL1        0.0224
      9 C          63.6763   91.8353   10.4238 C.3     1  UNL1        0.0061
     10 C          63.4951   90.4669   11.0109 C.3     1  UNL1        0.0219
     11 C          62.7818   89.1583   10.8413 C.3     1  UNL1        0.0950
     12 H          63.8859   86.4648   13.9745 H       1  UNL1        0.1578
     13 C          62.3776   84.1974   14.9445 C.ar    1  UNL1        0.0458
     14 C          61.9073   82.7900   15.1640 C.ar    1  UNL1        0.0055
     15 C          61.8314   81.8359   14.0090 C.ar    1  UNL1        0.0208
     16 C          62.2257   82.2891   12.6346 C.ar    1  UNL1        0.1003
     17 N          62.6959   83.6965   12.4152 N.ar    1  UNL1       -0.2289
     18 C          62.7719   84.6506   13.5701 C.ar    1  UNL1        0.1363
     19 O          63.7888   85.5954   16.6191 O.co2   1  UNL1       -0.5445
     20 C          62.4535   85.1515   16.0995 C.2     1  UNL1        0.0756
     21 O          61.1942   85.6617   16.7348 O.co2   1  UNL1       -0.5445
     22 C          65.1196   93.9915   11.0659 C.ar    1  UNL1       -0.0186
     23 C          64.4697   94.8445   10.0171 C.ar    1  UNL1       -0.0043
     24 C          64.9400   96.2519    9.7975 C.ar    1  UNL1       -0.0003
     25 C          66.0602   96.8063   10.6269 C.ar    1  UNL1       -0.0001
     26 C          66.7101   95.9533   11.6758 C.ar    1  UNL1        0.0035
     27 C          66.2399   94.5460   11.8952 C.ar    1  UNL1        0.0675
     28 C          66.8898   93.6930   12.9441 C.3     1  UNL1        0.4183
     29 F          67.5396   92.8400   13.9929 F       1  UNL1       -0.1659
     30 F          67.6232   92.9379   11.8755 F       1  UNL1       -0.1659
     31 F          66.1563   94.4480   14.0126 F       1  UNL1       -0.1659
@<TRIPOS>UNITY_ATOM_ATTR
19 1
charge -1
@<TRIPOS>BOND
     1    19    20   ar
     2    20    21   ar
     3    20    13    1
     4    13    14   ar
     5    14    15   ar
     6    15    16   ar
     7    16    17   ar
     8    17    18   ar
     9    18     1    1
    10     1     2   am
    11     2     3    2
    12     2     4   am
    13     4     5    1
    14     6     5    1
    15     6     7    1
    16     7     8    1
    17     8    22    1
    18    22    23   ar
    19    23    24   ar
    20    24    25   ar
    21    25    26   ar
    22    26    27   ar
    23    27    28    1
    24    28    29    1
    25    28    30    1
    26    28    31    1
    27     8     9    1
    28    10     9    1
    29    10    11    1
    30    18    13   ar
    31    11     4    1
    32    10     6    1
    33    27    22   ar
    34     1    12    1
