@<TRIPOS>MOLECULE
*****
 55 61 0 0 0
SMALL
GASTEIGER

@<TRIPOS>ATOM
      1 N          62.6904   84.1830    9.3669 N.3     1  UNL1       -0.1862
      2 C          61.9865   84.2721    8.0453 C.3     1  UNL1        0.1775
      3 C          61.1867   85.4938    7.7024 C.2     1  UNL1        0.2452
      4 O          60.4828   85.5828    6.3807 O.2     1  UNL1       -0.2732
      5 N          61.0907   86.6265    8.6810 N.am    1  UNL1       -0.2541
      6 C          60.2909   87.8482    8.3381 C.3     1  UNL1        0.1577
      7 C          60.1949   88.9809    9.3167 C.2     1  UNL1        0.2445
      8 O          59.3950   90.2026    8.9738 O.2     1  UNL1       -0.2731
      9 N          60.8987   88.8919   10.6384 N.am    1  UNL1       -0.2705
     10 C          61.6986   87.6702   10.9813 C.3     1  UNL1        0.1359
     11 C          61.7946   86.5374   10.0026 C.3     1  UNL1        0.1908
     12 N          62.5944   85.3157   10.3456 N.am    1  UNL1       -0.1863
     13 C          63.2983   85.2267   11.6672 C.2     1  UNL1        0.3191
     14 O          63.2023   86.3594   12.6458 O.2     1  UNL1       -0.2512
     15 N          64.0981   84.0050   12.0102 N.am    1  UNL1       -0.2836
     16 H          64.1611   83.2615   11.3678 H       1  UNL1        0.1513
     17 C          63.4902   82.9613    9.7099 C.3     1  UNL1        0.1188
     18 C          63.1463   80.4292   10.1793 C.2     1  UNL1       -0.0034
     19 C          62.8710   81.8632   10.5227 C.2     1  UNL1       -0.0071
     20 C          59.5870   87.9373    7.0165 C.3     1  UNL1        0.0556
     21 C          59.5182   89.2479    6.2902 C.ar    1  UNL1       -0.0198
     22 C          58.1956   89.9274    6.0926 C.ar    1  UNL1       -0.0011
     23 C          58.1268   91.2380    5.3663 C.ar    1  UNL1        0.0363
     24 C          59.3806   91.8692    4.8376 C.ar    1  UNL1        0.1337
     25 O          59.3118   93.1798    4.1113 O.3     1  UNL1       -0.5055
     26 C          60.7033   91.1897    5.0351 C.ar    1  UNL1        0.0363
     27 C          60.7721   89.8791    5.7615 C.ar    1  UNL1       -0.0011
     28 H          58.4856   93.6042    3.9879 H       1  UNL1        0.2922
     29 C          60.8027   90.0246   11.6170 C.3     1  UNL1        0.1217
     30 C          61.8709   90.2131   12.6532 C.ar    1  UNL1        0.0135
     31 C          61.6593   89.7067   14.0492 C.ar    1  UNL1       -0.0012
     32 C          62.7274   89.8952   15.0853 C.ar    1  UNL1       -0.0002
     33 C          64.0070   90.5901   14.7255 C.ar    1  UNL1        0.0016
     34 C          64.2186   91.0965   13.3295 C.ar    1  UNL1        0.0214
     35 C          65.3676   91.8143   12.6856 C.ar    1  UNL1        0.0731
     36 C          65.0095   92.0695   11.2515 C.ar    1  UNL1        0.0805
     37 N          63.6394   91.5093   11.0091 N.ar    1  UNL1       -0.3241
     38 C          62.8896   91.5444    9.7104 C.3     1  UNL1        0.1305
     39 C          63.1506   90.9080   12.2934 C.ar    1  UNL1        0.0577
     40 C          66.6495   92.2079   13.3578 C.2     1  UNL1        0.2605
     41 O          67.9399   92.1678   12.5941 O.2     1  UNL1       -0.2688
     42 N          66.6410   92.6416   14.7937 N.am    1  UNL1       -0.2429
     43 H          65.7940   92.6680   15.2949 H       1  UNL1        0.1696
     44 N          67.9228   93.0352   15.4660 N.3     1  UNL1       -0.2057
     45 C          68.8675   92.1098   16.1737 C.3     1  UNL1        0.0919
     46 C          70.0135   92.9260   16.6937 C.3     1  UNL1        0.0206
     47 C          69.7771   94.3560   16.3072 C.3     1  UNL1        0.0206
     48 C          68.4849   94.4234   15.5485 C.3     1  UNL1        0.0919
     49 C          64.8020   83.9159   13.3317 C.3     1  UNL1        0.1177
     50 C          64.2203   84.5911   14.5383 C.ar    1  UNL1       -0.0025
     51 C          64.7819   85.8999   15.0090 C.ar    1  UNL1       -0.0026
     52 C          64.2003   86.5752   16.2155 C.ar    1  UNL1       -0.0003
     53 C          63.0570   85.9416   16.9514 C.ar    1  UNL1       -0.0000
     54 C          62.4954   84.6327   16.4807 C.ar    1  UNL1       -0.0003
     55 C          63.0770   83.9575   15.2741 C.ar    1  UNL1       -0.0026
@<TRIPOS>BOND
     1    18    19    2
     2    19    17    1
     3    17     1    1
     4     1     2    1
     5     2     3    1
     6     3     4    2
     7     3     5   am
     8     5     6    1
     9     6    20    1
    10    20    21    1
    11    21    22   ar
    12    22    23   ar
    13    23    24   ar
    14    24    25    1
    15    24    26   ar
    16    26    27   ar
    17     6     7    1
    18     7     8    2
    19     7     9   am
    20     9    29    1
    21    29    30    1
    22    30    31   ar
    23    31    32   ar
    24    32    33   ar
    25    33    34   ar
    26    34    35   ar
    27    35    40    1
    28    40    41    2
    29    40    42   am
    30    42    44    1
    31    44    45    1
    32    45    46    1
    33    46    47    1
    34    47    48    1
    35    35    36   ar
    36    36    37   ar
    37    37    38    1
    38    37    39   ar
    39     9    10    1
    40    11    10    1
    41    11    12    1
    42    12    13   am
    43    13    14    2
    44    13    15   am
    45    15    49    1
    46    49    50    1
    47    50    51   ar
    48    51    52   ar
    49    52    53   ar
    50    53    54   ar
    51    54    55   ar
    52    12     1    1
    53    55    50   ar
    54    11     5    1
    55    27    21   ar
    56    39    30   ar
    57    39    34   ar
    58    48    44    1
    59    25    28    1
    60    42    43    1
    61    15    16    1
@<TRIPOS>MOLECULE
*****
 55 61 0 0 0
SMALL
GASTEIGER

@<TRIPOS>ATOM
      1 N          62.7535   83.9634    9.5787 N.3     1  UNL1       -0.1862
      2 C          62.0527   83.9986    8.2530 C.3     1  UNL1        0.1775
      3 C          61.3177   85.2345    7.8258 C.2     1  UNL1        0.2452
      4 O          60.6168   85.2697    6.5000 O.2     1  UNL1       -0.2732
      5 N          61.2837   86.4351    8.7243 N.am    1  UNL1       -0.2541
      6 C          60.5487   87.6710    8.2970 C.3     1  UNL1        0.1577
      7 C          60.5147   88.8716    9.1955 C.2     1  UNL1        0.2445
      8 O          59.7798   90.1075    8.7683 O.2     1  UNL1       -0.2731
      9 N          61.2156   88.8364   10.5213 N.am    1  UNL1       -0.2705
     10 C          61.9505   87.6005   10.9485 C.3     1  UNL1        0.1359
     11 C          61.9846   86.3999   10.0499 C.3     1  UNL1        0.1908
     12 N          62.7195   85.1640   10.4772 N.am    1  UNL1       -0.1863
     13 C          63.4204   85.1288   11.8029 C.2     1  UNL1        0.3191
     14 O          63.3863   86.3294   12.7014 O.2     1  UNL1       -0.2512
     15 N          64.1553   83.8929   12.2301 N.am    1  UNL1       -0.2836
     16 H          64.1777   83.1049   11.6404 H       1  UNL1        0.1513
     17 C          63.4885   82.7275   10.0059 C.3     1  UNL1        0.1188
     18 C          63.1207   80.1560   10.0498 C.2     1  UNL1       -0.0034
     19 C          62.7253   81.5326   10.4954 C.2     1  UNL1       -0.0071
     20 C          59.8479   87.7062    6.9714 C.3     1  UNL1        0.0556
     21 C          59.6011   89.0186    6.2881 C.ar    1  UNL1       -0.0198
     22 C          60.7344   89.7434    5.6246 C.ar    1  UNL1       -0.0011
     23 C          60.4876   91.0558    4.9413 C.ar    1  UNL1        0.0363
     24 C          59.1076   91.6433    4.9215 C.ar    1  UNL1        0.1337
     25 O          58.8609   92.9556    4.2383 O.3     1  UNL1       -0.5055
     26 C          57.9743   90.9184    5.5851 C.ar    1  UNL1        0.0363
     27 C          58.2210   89.6060    6.2683 C.ar    1  UNL1       -0.0011
     28 H          59.5688   93.4084    3.8238 H       1  UNL1        0.2922
     29 C          61.1815   90.0370   11.4198 C.3     1  UNL1        0.1217
     30 C          62.4389   90.8104   11.6862 C.ar    1  UNL1        0.0135
     31 C          63.1123   91.5544   10.5712 C.ar    1  UNL1       -0.0012
     32 C          64.3696   92.3277   10.8376 C.ar    1  UNL1       -0.0002
     33 C          64.9537   92.3570   12.2188 C.ar    1  UNL1        0.0016
     34 C          64.2803   91.6130   13.3338 C.ar    1  UNL1        0.0214
     35 C          64.6198   91.4596   14.7868 C.ar    1  UNL1        0.0731
     36 C          63.5723   90.5914   15.4184 C.ar    1  UNL1        0.0805
     37 N          62.5854   90.2083   14.3558 N.ar    1  UNL1       -0.3241
     38 C          61.3737   89.3453   14.5478 C.3     1  UNL1        0.1305
     39 C          63.0230   90.8397   13.0674 C.ar    1  UNL1        0.0577
     40 C          65.7998   92.0676   15.4855 C.2     1  UNL1        0.2605
     41 O          65.6671   92.5507   16.8994 O.2     1  UNL1       -0.2688
     42 N          67.1124   92.1925   14.7703 N.am    1  UNL1       -0.2429
     43 H          67.1995   91.8754   13.8423 H       1  UNL1        0.1696
     44 N          68.2923   92.8005   15.4689 N.3     1  UNL1       -0.2057
     45 C          68.6431   94.2585   15.5006 C.3     1  UNL1        0.0919
     46 C          69.8963   94.4162   16.3098 C.3     1  UNL1        0.0206
     47 C          70.3200   93.0557   16.7781 C.3     1  UNL1        0.0206
     48 C          69.3287   92.0571   16.2584 C.3     1  UNL1        0.0919
     49 C          64.8562   83.8577   13.5558 C.3     1  UNL1        0.1177
     50 C          64.2658   84.5717   14.7355 C.ar    1  UNL1       -0.0025
     51 C          63.1173   83.9621   15.4833 C.ar    1  UNL1       -0.0026
     52 C          62.5270   84.6761   16.6630 C.ar    1  UNL1       -0.0003
     53 C          63.0851   85.9996   17.0949 C.ar    1  UNL1       -0.0000
     54 C          64.2337   86.6093   16.3471 C.ar    1  UNL1       -0.0003
     55 C          64.8241   85.8953   15.1674 C.ar    1  UNL1       -0.0026
@<TRIPOS>BOND
     1    18    19    2
     2    19    17    1
     3    17     1    1
     4     1     2    1
     5     2     3    1
     6     3     4    2
     7     3     5   am
     8     5     6    1
     9     6    20    1
    10    20    21    1
    11    21    22   ar
    12    22    23   ar
    13    23    24   ar
    14    24    25    1
    15    24    26   ar
    16    26    27   ar
    17     6     7    1
    18     7     8    2
    19     7     9   am
    20     9    29    1
    21    29    30    1
    22    30    31   ar
    23    31    32   ar
    24    32    33   ar
    25    33    34   ar
    26    34    35   ar
    27    35    40    1
    28    40    41    2
    29    40    42   am
    30    42    44    1
    31    44    45    1
    32    45    46    1
    33    46    47    1
    34    47    48    1
    35    35    36   ar
    36    36    37   ar
    37    37    38    1
    38    37    39   ar
    39     9    10    1
    40    11    10    1
    41    11    12    1
    42    12    13   am
    43    13    14    2
    44    13    15   am
    45    15    49    1
    46    49    50    1
    47    50    51   ar
    48    51    52   ar
    49    52    53   ar
    50    53    54   ar
    51    54    55   ar
    52    12     1    1
    53    55    50   ar
    54    11     5    1
    55    27    21   ar
    56    39    30   ar
    57    39    34   ar
    58    48    44    1
    59    25    28    1
    60    42    43    1
    61    15    16    1
