@<TRIPOS>MOLECULE
*****
 35 39 0 0 0
SMALL
GASTEIGER

@<TRIPOS>ATOM
      1 C          59.7551   91.0514    5.1872 C.ar    1  UNL1       -0.0025
      2 C          59.0149   91.9826    4.2735 C.ar    1  UNL1       -0.0013
      3 C          59.7023   92.5561    3.0699 C.ar    1  UNL1        0.0181
      4 C          61.1299   92.1984    2.7801 C.ar    1  UNL1        0.1056
      5 C          61.8701   91.2671    3.6938 C.ar    1  UNL1        0.0181
      6 C          61.1827   90.6936    4.8974 C.ar    1  UNL1       -0.0013
      7 S          61.8173   92.7718    1.5765 S.O2    1  UNL1        0.0071
      8 O          60.4970   93.2523    1.0513 O.2     1  UNL1       -0.1687
      9 O          63.1376   92.2914    2.1017 O.2     1  UNL1       -0.1687
     10 C          62.5047   93.3453    0.3730 C.3     1  UNL1        0.1366
     11 C          63.7776   94.1222    0.5354 C.3     1  UNL1        0.0413
     12 C          64.4650   94.6957   -0.6682 C.3     1  UNL1        0.0738
     13 N          63.8796   94.4923   -2.0342 N.3     1  UNL1       -0.2737
     14 C          62.6068   93.7155   -2.1966 C.3     1  UNL1        0.0738
     15 C          61.9193   93.1419   -0.9930 C.3     1  UNL1        0.0413
     16 C          64.5670   95.0658   -3.2377 C.3     1  UNL1        0.0625
     17 C          65.4364   96.2801   -3.0973 C.3     1  UNL1        0.0481
     18 C          66.1238   96.8536   -4.3008 C.3     1  UNL1        0.1435
     19 O          65.9418   96.2128   -5.6448 O.3     1  UNL1       -0.3537
     20 C          65.0725   94.9986   -5.7853 C.3     1  UNL1        0.1435
     21 C          64.3850   94.4250   -4.5817 C.3     1  UNL1        0.0481
     22 C          59.0677   90.4778    6.3908 C.3     1  UNL1        0.1166
     23 O          58.8903   87.5841    7.1619 O.2     1  UNL1       -0.2685
     24 C          59.7898   88.5100    7.9258 C.2     1  UNL1        0.2638
     25 N          59.8785   89.9569    7.5403 N.am    1  UNL1       -0.2957
     26 H          60.4688   90.5646    8.0417 H       1  UNL1        0.1501
     27 C          60.6005   87.9890    9.0753 C.2     1  UNL1        0.1341
     28 C          61.4303   88.8135   10.0143 C.2     1  UNL1        0.0264
     29 C          62.0665   87.8861   11.0069 C.2     1  UNL1        0.0347
     30 C          62.9868   88.1338   12.1651 C.2     1  UNL1        0.0997
     31 N          63.4707   86.9838   12.9978 N.2     1  UNL1       -0.2465
     32 C          63.0342   85.5862   12.6722 C.2     1  UNL1        0.0788
     33 C          62.1138   85.3385   11.5140 C.3     1  UNL1        0.0927
     34 C          61.6299   86.4885   10.6814 C.2     1  UNL1        0.0666
     35 N          60.7239   86.5521    9.4876 N.2     1  UNL1       -0.2447
@<TRIPOS>BOND
     1    23    24    2
     2    24    25   am
     3    25    22    1
     4    22     1    1
     5     1     2   ar
     6     2     3   ar
     7     3     4   ar
     8     4     7    1
     9     7     8    2
    10     7     9    2
    11     7    10    1
    12    10    11    1
    13    11    12    1
    14    12    13    1
    15    13    16    1
    16    16    17    1
    17    17    18    1
    18    18    19    1
    19    19    20    1
    20    20    21    1
    21    13    14    1
    22    14    15    1
    23     4     5   ar
    24     5     6   ar
    25    24    27    1
    26    27    28    2
    27    28    29    1
    28    29    30    2
    29    30    31    1
    30    31    32    2
    31    32    33    1
    32    33    34    1
    33    34    35    2
    34     6     1   ar
    35    35    27    1
    36    15    10    1
    37    34    29    1
    38    21    16    1
    39    25    26    1
@<TRIPOS>MOLECULE
*****
 35 39 0 0 0
SMALL
GASTEIGER

@<TRIPOS>ATOM
      1 C          59.7476   91.1552    5.0606 C.ar    1  UNL1       -0.0025
      2 C          61.1967   90.8494    4.8232 C.ar    1  UNL1       -0.0013
      3 C          61.8919   91.4033    3.6148 C.ar    1  UNL1        0.0181
      4 C          61.1379   92.2629    2.6440 C.ar    1  UNL1        0.1056
      5 C          59.6887   92.5686    2.8815 C.ar    1  UNL1        0.0181
      6 C          58.9936   92.0148    4.0898 C.ar    1  UNL1       -0.0013
      7 S          61.8330   92.8167    1.4357 S.O2    1  UNL1        0.0071
      8 O          60.6768   92.3960    0.5777 O.2     1  UNL1       -0.1687
      9 O          62.9893   93.2373    2.2937 O.2     1  UNL1       -0.1687
     10 C          62.5282   93.3705    0.2274 C.3     1  UNL1        0.1366
     11 C          63.7849   94.1738    0.3875 C.3     1  UNL1        0.0413
     12 C          64.4800   94.7276   -0.8208 C.3     1  UNL1        0.0738
     13 N          63.9185   94.4783   -2.1892 N.3     1  UNL1       -0.2737
     14 C          62.6618   93.6751   -2.3493 C.3     1  UNL1        0.0738
     15 C          61.9666   93.1212   -1.1410 C.3     1  UNL1        0.0413
     16 C          64.6136   95.0321   -3.3975 C.3     1  UNL1        0.0625
     17 C          64.5177   94.3159   -4.7120 C.3     1  UNL1        0.0481
     18 C          65.2129   94.8697   -5.9203 C.3     1  UNL1        0.1435
     19 O          66.0039   96.1398   -5.8142 O.3     1  UNL1       -0.3537
     20 C          66.0998   96.8560   -4.4997 C.3     1  UNL1        0.1435
     21 C          65.4046   96.3022   -3.2914 C.3     1  UNL1        0.0481
     22 C          59.0524   90.6013    6.2690 C.3     1  UNL1        0.1166
     23 O          58.7529   87.7245    7.0653 O.2     1  UNL1       -0.2685
     24 C          59.7060   88.6131    7.8083 C.2     1  UNL1        0.2638
     25 N          59.8557   90.0515    7.4101 N.am    1  UNL1       -0.2957
     26 H          60.4813   90.6347    7.8978 H       1  UNL1        0.1501
     27 C          60.5093   88.0632    8.9495 C.2     1  UNL1        0.1341
     28 C          61.3623   88.8598    9.8918 C.2     1  UNL1        0.0264
     29 C          61.9809   87.9092   10.8735 C.2     1  UNL1        0.0347
     30 C          62.9119   88.1251   12.0295 C.2     1  UNL1        0.0997
     31 N          63.3723   86.9568   12.8500 N.2     1  UNL1       -0.2465
     32 C          62.9016   85.5727   12.5144 C.2     1  UNL1        0.0788
     33 C          61.9706   85.3568   11.3583 C.3     1  UNL1        0.0927
     34 C          61.5102   86.5250   10.5378 C.2     1  UNL1        0.0666
     35 N          60.6008   86.6202    9.3488 N.2     1  UNL1       -0.2447
@<TRIPOS>BOND
     1    23    24    2
     2    24    25   am
     3    25    22    1
     4    22     1    1
     5     1     2   ar
     6     2     3   ar
     7     3     4   ar
     8     4     7    1
     9     7     8    2
    10     7     9    2
    11     7    10    1
    12    10    11    1
    13    11    12    1
    14    12    13    1
    15    13    16    1
    16    16    17    1
    17    17    18    1
    18    18    19    1
    19    19    20    1
    20    20    21    1
    21    13    14    1
    22    14    15    1
    23     4     5   ar
    24     5     6   ar
    25    24    27    1
    26    27    28    2
    27    28    29    1
    28    29    30    2
    29    30    31    1
    30    31    32    2
    31    32    33    1
    32    33    34    1
    33    34    35    2
    34     6     1   ar
    35    35    27    1
    36    15    10    1
    37    34    29    1
    38    21    16    1
    39    25    26    1
@<TRIPOS>MOLECULE
*****
 35 39 0 0 0
SMALL
GASTEIGER

@<TRIPOS>ATOM
      1 C          59.7299   90.7422    5.6874 C.ar    1  UNL1       -0.0025
      2 C          61.1686   90.6395    5.2757 C.ar    1  UNL1       -0.0013
      3 C          61.6408   91.3177    4.0239 C.ar    1  UNL1        0.0181
      4 C          60.6742   92.0986    3.1837 C.ar    1  UNL1        0.1056
      5 C          59.2354   92.2014    3.5955 C.ar    1  UNL1        0.0181
      6 C          58.7633   91.5232    4.8473 C.ar    1  UNL1       -0.0013
      7 S          61.1463   92.7768    1.9319 S.O2    1  UNL1        0.0071
      8 O          59.7471   92.7542    1.3919 O.2     1  UNL1       -0.1687
      9 O          62.5455   92.7994    2.4719 O.2     1  UNL1       -0.1687
     10 C          61.6184   93.4550    0.6801 C.3     1  UNL1        0.1366
     11 C          61.1393   92.9767   -0.6585 C.3     1  UNL1        0.0413
     12 C          61.6114   93.6549   -1.9103 C.3     1  UNL1        0.0738
     13 N          62.5627   94.8114   -1.8237 N.3     1  UNL1       -0.2737
     14 C          63.0418   95.2897   -0.4852 C.3     1  UNL1        0.0738
     15 C          62.5697   94.6115    0.7667 C.3     1  UNL1        0.0413
     16 C          63.0348   95.4896   -3.0755 C.3     1  UNL1        0.0625
     17 C          62.0488   96.1736   -3.9755 C.3     1  UNL1        0.0481
     18 C          62.5209   96.8518   -5.2273 C.3     1  UNL1        0.1435
     19 O          63.9790   96.8461   -5.5792 O.3     1  UNL1       -0.3537
     20 C          64.9650   96.1621   -4.6793 C.3     1  UNL1        0.1435
     21 C          64.4929   95.4838   -3.4274 C.3     1  UNL1        0.0481
     22 C          59.2577   90.0640    6.9393 C.3     1  UNL1        0.1166
     23 O          58.3119   87.3627    7.8383 O.2     1  UNL1       -0.2685
     24 C          59.7106   87.8084    8.1464 C.2     1  UNL1        0.2638
     25 N          60.1835   89.1590    7.6969 N.am    1  UNL1       -0.2957
     26 H          61.1015   89.4516    7.8991 H       1  UNL1        0.1501
     27 C          60.6364   86.9034    8.9040 C.2     1  UNL1        0.1341
     28 C          61.6904   86.0195    8.3058 C.2     1  UNL1        0.0264
     29 C          62.3762   85.2933    9.4249 C.2     1  UNL1        0.0347
     30 C          63.4930   84.2921    9.4360 C.2     1  UNL1        0.0997
     31 N          63.9797   83.7259   10.7370 N.2     1  UNL1       -0.2465
     32 C          63.3495   84.1610   12.0268 C.2     1  UNL1        0.0788
     33 C          62.2327   85.1622   12.0157 C.3     1  UNL1        0.0927
     34 C          61.7460   85.7283   10.7147 C.2     1  UNL1        0.0666
     35 N          60.6708   86.7235   10.3927 N.2     1  UNL1       -0.2447
@<TRIPOS>BOND
     1    23    24    2
     2    24    25   am
     3    25    22    1
     4    22     1    1
     5     1     2   ar
     6     2     3   ar
     7     3     4   ar
     8     4     7    1
     9     7     8    2
    10     7     9    2
    11     7    10    1
    12    10    11    1
    13    11    12    1
    14    12    13    1
    15    13    16    1
    16    16    17    1
    17    17    18    1
    18    18    19    1
    19    19    20    1
    20    20    21    1
    21    13    14    1
    22    14    15    1
    23     4     5   ar
    24     5     6   ar
    25    24    27    1
    26    27    28    2
    27    28    29    1
    28    29    30    2
    29    30    31    1
    30    31    32    2
    31    32    33    1
    32    33    34    1
    33    34    35    2
    34     6     1   ar
    35    35    27    1
    36    15    10    1
    37    34    29    1
    38    21    16    1
    39    25    26    1
@<TRIPOS>MOLECULE
*****
 35 39 0 0 0
SMALL
GASTEIGER

@<TRIPOS>ATOM
      1 C          59.4144   90.2379    6.3161 C.ar    1  UNL1       -0.0025
      2 C          60.8522   90.1378    5.9008 C.ar    1  UNL1       -0.0013
      3 C          61.3312   90.8600    4.6764 C.ar    1  UNL1        0.0181
      4 C          60.3723   91.6822    3.8674 C.ar    1  UNL1        0.1056
      5 C          58.9344   91.7822    4.2828 C.ar    1  UNL1        0.0181
      6 C          58.4555   91.0601    5.5071 C.ar    1  UNL1       -0.0013
      7 S          60.8513   92.4044    2.6430 S.O2    1  UNL1        0.0071
      8 O          59.5200   93.0852    2.5238 O.2     1  UNL1       -0.1687
      9 O          62.1825   91.7236    2.7622 O.2     1  UNL1       -0.1687
     10 C          61.3302   93.1265    1.4187 C.3     1  UNL1        0.1366
     11 C          60.5991   92.9654    0.1188 C.3     1  UNL1        0.0413
     12 C          61.0780   93.6876   -1.1055 C.3     1  UNL1        0.0738
     13 N          62.2881   94.5708   -1.0301 N.3     1  UNL1       -0.2737
     14 C          63.0192   94.7319    0.2697 C.3     1  UNL1        0.0738
     15 C          62.5402   94.0098    1.4941 C.3     1  UNL1        0.0413
     16 C          62.7670   95.2930   -2.2544 C.3     1  UNL1        0.0625
     17 C          64.2374   95.4289   -2.5179 C.3     1  UNL1        0.0481
     18 C          64.7164   96.1511   -3.7423 C.3     1  UNL1        0.1435
     19 O          63.7249   96.7374   -4.7032 O.3     1  UNL1       -0.3537
     20 C          62.2545   96.6014   -4.4397 C.3     1  UNL1        0.1435
     21 C          61.7755   95.8793   -3.2153 C.3     1  UNL1        0.0481
     22 C          58.9354   89.5157    7.5405 C.3     1  UNL1        0.1166
     23 O          59.0495   86.5329    7.2416 O.2     1  UNL1       -0.2685
     24 C          59.9570   87.2242    8.2154 C.2     1  UNL1        0.2638
     25 N          59.9000   88.7157    8.3648 N.am    1  UNL1       -0.2957
     26 H          60.4957   89.1695    9.0040 H       1  UNL1        0.1501
     27 C          60.9216   86.4242    9.0397 C.2     1  UNL1        0.1341
     28 C          61.0666   86.4830   10.5315 C.2     1  UNL1        0.0264
     29 C          62.1452   85.5201   10.9308 C.2     1  UNL1        0.0347
     30 C          62.7197   85.1542   12.2672 C.2     1  UNL1        0.0997
     31 N          63.8159   84.1344   12.3585 N.2     1  UNL1       -0.2465
     32 C          64.3376   83.4805   11.1134 C.2     1  UNL1        0.0788
     33 C          63.7630   83.8463    9.7770 C.3     1  UNL1        0.0927
     34 C          62.6669   84.8661    9.6857 C.2     1  UNL1        0.0666
     35 N          61.9107   85.4249    8.5169 N.2     1  UNL1       -0.2447
@<TRIPOS>BOND
     1    23    24    2
     2    24    25   am
     3    25    22    1
     4    22     1    1
     5     1     2   ar
     6     2     3   ar
     7     3     4   ar
     8     4     7    1
     9     7     8    2
    10     7     9    2
    11     7    10    1
    12    10    11    1
    13    11    12    1
    14    12    13    1
    15    13    16    1
    16    16    17    1
    17    17    18    1
    18    18    19    1
    19    19    20    1
    20    20    21    1
    21    13    14    1
    22    14    15    1
    23     4     5   ar
    24     5     6   ar
    25    24    27    1
    26    27    28    2
    27    28    29    1
    28    29    30    2
    29    30    31    1
    30    31    32    2
    31    32    33    1
    32    33    34    1
    33    34    35    2
    34     6     1   ar
    35    35    27    1
    36    15    10    1
    37    34    29    1
    38    21    16    1
    39    25    26    1
@<TRIPOS>MOLECULE
*****
 35 39 0 0 0
SMALL
GASTEIGER

@<TRIPOS>ATOM
      1 C          59.7396   90.6422    5.7304 C.ar    1  UNL1       -0.0025
      2 C          61.1563   90.4824    5.2641 C.ar    1  UNL1       -0.0013
      3 C          61.6169   91.1723    4.0143 C.ar    1  UNL1        0.0181
      4 C          60.6608   92.0220    3.2309 C.ar    1  UNL1        0.1056
      5 C          59.2440   92.1818    3.6972 C.ar    1  UNL1        0.0181
      6 C          58.7835   91.4919    4.9470 C.ar    1  UNL1       -0.0013
      7 S          61.1213   92.7119    1.9811 S.O2    1  UNL1        0.0071
      8 O          59.7160   93.1621    1.7118 O.2     1  UNL1       -0.1687
      9 O          62.5265   92.2617    2.2504 O.2     1  UNL1       -0.1687
     10 C          61.5818   93.4018    0.7314 C.3     1  UNL1        0.1366
     11 C          62.7338   94.3610    0.7852 C.3     1  UNL1        0.0413
     12 C          63.1944   95.0509   -0.4646 C.3     1  UNL1        0.0738
     13 N          62.5029   94.7816   -1.7682 N.3     1  UNL1       -0.2737
     14 C          61.3509   93.8225   -1.8220 C.3     1  UNL1        0.0738
     15 C          60.8903   93.1326   -0.5723 C.3     1  UNL1        0.0413
     16 C          62.9634   95.4715   -3.0179 C.3     1  UNL1        0.0625
     17 C          61.9581   95.9697   -4.0136 C.3     1  UNL1        0.0481
     18 C          62.4186   96.6596   -5.2634 C.3     1  UNL1        0.1435
     19 O          63.8845   96.8514   -5.5175 O.3     1  UNL1       -0.3537
     20 C          64.8897   96.3533   -4.5219 C.3     1  UNL1        0.1435
     21 C          64.4292   95.6634   -3.2721 C.3     1  UNL1        0.0481
     22 C          59.2790   89.9523    6.9802 C.3     1  UNL1        0.1166
     23 O          59.9749   87.3631    8.3261 O.2     1  UNL1       -0.2685
     24 C          60.4981   88.6576    8.8743 C.2     1  UNL1        0.2638
     25 N          60.1502   89.9522    8.2013 N.am    1  UNL1       -0.2957
     26 H          60.4936   90.8018    8.5611 H       1  UNL1        0.1501
     27 C          61.3693   88.6574   10.0954 C.2     1  UNL1        0.1341
     28 C          61.8417   87.4448   10.8412 C.2     1  UNL1        0.0264
     29 C          62.6854   87.9078   11.9919 C.2     1  UNL1        0.0347
     30 C          63.4153   87.1583   13.0667 C.2     1  UNL1        0.0997
     31 N          64.1942   87.9076   14.1068 N.2     1  UNL1       -0.2465
     32 C          64.2432   89.4064   14.0721 C.2     1  UNL1        0.0788
     33 C          63.5132   90.1559   12.9972 C.3     1  UNL1        0.0927
     34 C          62.7343   89.4066   11.9571 C.2     1  UNL1        0.0666
     35 N          61.9209   89.8699   10.7850 N.2     1  UNL1       -0.2447
@<TRIPOS>BOND
     1    23    24    2
     2    24    25   am
     3    25    22    1
     4    22     1    1
     5     1     2   ar
     6     2     3   ar
     7     3     4   ar
     8     4     7    1
     9     7     8    2
    10     7     9    2
    11     7    10    1
    12    10    11    1
    13    11    12    1
    14    12    13    1
    15    13    16    1
    16    16    17    1
    17    17    18    1
    18    18    19    1
    19    19    20    1
    20    20    21    1
    21    13    14    1
    22    14    15    1
    23     4     5   ar
    24     5     6   ar
    25    24    27    1
    26    27    28    2
    27    28    29    1
    28    29    30    2
    29    30    31    1
    30    31    32    2
    31    32    33    1
    32    33    34    1
    33    34    35    2
    34     6     1   ar
    35    35    27    1
    36    15    10    1
    37    34    29    1
    38    21    16    1
    39    25    26    1
@<TRIPOS>MOLECULE
*****
 35 39 0 0 0
SMALL
GASTEIGER

@<TRIPOS>ATOM
      1 C          58.7535   91.1041    5.1852 C.ar    1  UNL1       -0.0025
      2 C          57.8368   90.2107    5.9673 C.ar    1  UNL1       -0.0013
      3 C          58.4032   89.2395    6.9603 C.ar    1  UNL1        0.0181
      4 C          59.8862   89.1618    7.1713 C.ar    1  UNL1        0.1056
      5 C          60.8029   90.0552    6.3893 C.ar    1  UNL1        0.0181
      6 C          60.2365   91.0263    5.3963 C.ar    1  UNL1       -0.0013
      7 S          60.4526   88.1907    8.1643 S.O2    1  UNL1        0.0071
      8 O          59.8991   87.0493    7.3638 O.2     1  UNL1       -0.1687
      9 O          61.0060   89.3320    8.9649 O.2     1  UNL1       -0.1687
     10 C          61.0190   87.2196    9.1573 C.3     1  UNL1        0.1366
     11 C          61.9419   86.1298    8.6982 C.3     1  UNL1        0.0413
     12 C          62.5083   85.1587    9.6912 C.3     1  UNL1        0.0738
     13 N          62.1518   85.2772   11.1434 N.3     1  UNL1       -0.2737
     14 C          61.2289   86.3669   11.6026 C.3     1  UNL1        0.0738
     15 C          60.6625   87.3381   10.6095 C.3     1  UNL1        0.0413
     16 C          62.7181   84.3061   12.1364 C.3     1  UNL1        0.0625
     17 C          63.3004   84.8054   13.4255 C.3     1  UNL1        0.0481
     18 C          63.8667   83.8343   14.4185 C.3     1  UNL1        0.1435
     19 O          63.8509   82.3639   14.1225 O.3     1  UNL1       -0.3537
     20 C          63.2688   81.8646   12.8334 C.3     1  UNL1        0.1435
     21 C          62.7023   82.8357   11.8403 C.3     1  UNL1        0.0481
     22 C          58.1871   92.0753    4.1922 C.3     1  UNL1        0.1166
     23 O          59.9987   94.3638    3.4993 O.2     1  UNL1       -0.2685
     24 C          59.6852   93.3177    2.4711 C.2     1  UNL1        0.2638
     25 N          58.7794   92.1734    2.8175 N.am    1  UNL1       -0.2957
     26 H          58.5736   91.4868    2.1427 H       1  UNL1        0.1501
     27 C          60.2774   93.4158    1.0965 C.2     1  UNL1        0.1341
     28 C          59.5110   93.5398   -0.1870 C.2     1  UNL1        0.0264
     29 C          60.5000   93.6079   -1.3127 C.2     1  UNL1        0.0347
     30 C          60.3241   93.7338   -2.7970 C.2     1  UNL1        0.0997
     31 N          61.5258   93.7778   -3.6936 N.2     1  UNL1       -0.2465
     32 C          62.9034   93.6959   -3.1059 C.2     1  UNL1        0.0788
     33 C          63.0793   93.5699   -1.6216 C.3     1  UNL1        0.0927
     34 C          61.8776   93.5259   -0.7250 C.2     1  UNL1        0.0666
     35 N          61.7401   93.4072    0.7639 N.2     1  UNL1       -0.2447
@<TRIPOS>BOND
     1    23    24    2
     2    24    25   am
     3    25    22    1
     4    22     1    1
     5     1     2   ar
     6     2     3   ar
     7     3     4   ar
     8     4     7    1
     9     7     8    2
    10     7     9    2
    11     7    10    1
    12    10    11    1
    13    11    12    1
    14    12    13    1
    15    13    16    1
    16    16    17    1
    17    17    18    1
    18    18    19    1
    19    19    20    1
    20    20    21    1
    21    13    14    1
    22    14    15    1
    23     4     5   ar
    24     5     6   ar
    25    24    27    1
    26    27    28    2
    27    28    29    1
    28    29    30    2
    29    30    31    1
    30    31    32    2
    31    32    33    1
    32    33    34    1
    33    34    35    2
    34     6     1   ar
    35    35    27    1
    36    15    10    1
    37    34    29    1
    38    21    16    1
    39    25    26    1
@<TRIPOS>MOLECULE
*****
 35 39 0 0 0
SMALL
GASTEIGER

@<TRIPOS>ATOM
      1 C          58.6613   91.0448    5.1867 C.ar    1  UNL1       -0.0025
      2 C          57.7562   90.1525    5.9834 C.ar    1  UNL1       -0.0013
      3 C          58.3362   89.1938    6.9807 C.ar    1  UNL1        0.0181
      4 C          59.8212   89.1274    7.1813 C.ar    1  UNL1        0.1056
      5 C          60.7263   90.0197    6.3846 C.ar    1  UNL1        0.0181
      6 C          60.1463   90.9784    5.3873 C.ar    1  UNL1       -0.0013
      7 S          60.4012   88.1688    8.1786 S.O2    1  UNL1        0.0071
      8 O          60.9117   89.3222    8.9904 O.2     1  UNL1       -0.1687
      9 O          59.8906   87.0154    7.3669 O.2     1  UNL1       -0.1687
     10 C          60.9812   87.2102    9.1759 C.3     1  UNL1        0.1366
     11 C          60.6603   87.3590   10.6337 C.3     1  UNL1        0.0413
     12 C          61.2403   86.4004   11.6309 C.3     1  UNL1        0.0738
     13 N          62.1411   85.2929   11.1705 N.3     1  UNL1       -0.2737
     14 C          62.4619   85.1440    9.7129 C.3     1  UNL1        0.0738
     15 C          61.8820   86.1027    8.7155 C.3     1  UNL1        0.0413
     16 C          62.7211   84.3342   12.1678 C.3     1  UNL1        0.0625
     17 C          63.3012   84.8479   13.4523 C.3     1  UNL1        0.0481
     18 C          63.8812   83.8892   14.4495 C.3     1  UNL1        0.1435
     19 O          63.8811   82.4170   14.1624 O.3     1  UNL1       -0.3537
     20 C          63.3010   81.9033   12.8781 C.3     1  UNL1        0.1435
     21 C          62.7210   82.8620   11.8807 C.3     1  UNL1        0.0481
     22 C          58.0813   92.0035    4.1894 C.3     1  UNL1        0.1166
     23 O          59.9782   94.2544    3.6108 O.2     1  UNL1       -0.2685
     24 C          59.6462   93.2592    2.5388 C.2     1  UNL1        0.2638
     25 N          58.6978   92.1337    2.8281 N.am    1  UNL1       -0.2957
     26 H          58.4798   91.4805    2.1245 H       1  UNL1        0.1501
     27 C          60.2626   93.3894    1.1776 C.2     1  UNL1        0.1341
     28 C          61.7310   93.4455    0.8763 C.2     1  UNL1        0.0264
     29 C          61.8948   93.5772   -0.6089 C.2     1  UNL1        0.0347
     30 C          63.1122   93.6773   -1.4794 C.2     1  UNL1        0.0997
     31 N          62.9625   93.8027   -2.9666 N.2     1  UNL1       -0.2465
     32 C          61.5953   93.8279   -3.5833 C.2     1  UNL1        0.0788
     33 C          60.3779   93.7278   -2.7128 C.3     1  UNL1        0.0927
     34 C          60.5277   93.6024   -1.2256 C.2     1  UNL1        0.0666
     35 N          59.5190   93.4863   -0.1215 N.2     1  UNL1       -0.2447
@<TRIPOS>BOND
     1    23    24    2
     2    24    25   am
     3    25    22    1
     4    22     1    1
     5     1     2   ar
     6     2     3   ar
     7     3     4   ar
     8     4     7    1
     9     7     8    2
    10     7     9    2
    11     7    10    1
    12    10    11    1
    13    11    12    1
    14    12    13    1
    15    13    16    1
    16    16    17    1
    17    17    18    1
    18    18    19    1
    19    19    20    1
    20    20    21    1
    21    13    14    1
    22    14    15    1
    23     4     5   ar
    24     5     6   ar
    25    24    27    1
    26    27    28    2
    27    28    29    1
    28    29    30    2
    29    30    31    1
    30    31    32    2
    31    32    33    1
    32    33    34    1
    33    34    35    2
    34     6     1   ar
    35    35    27    1
    36    15    10    1
    37    34    29    1
    38    21    16    1
    39    25    26    1
