@<TRIPOS>MOLECULE
*****
 45 49 0 0 0
SMALL
GASTEIGER

@<TRIPOS>ATOM
      1 C          65.7619   93.3223   12.4101 C.2     1  UNL1        0.2437
      2 O          66.5570   93.2601   13.6805 O.2     1  UNL1       -0.2731
      3 N          64.9177   92.1537   11.9956 N.am    1  UNL1       -0.2778
      4 C          64.0730   92.0708   10.7588 C.3     1  UNL1        0.0956
      5 C          63.4033   90.7286   10.7441 C.3     1  UNL1        0.0497
      6 C          63.8341   89.9822   11.9717 C.3     1  UNL1        0.1527
      7 C          63.4949   88.6141   12.4851 C.ar    1  UNL1        0.0130
      8 C          62.5590   87.7335   11.7116 C.ar    1  UNL1       -0.0002
      9 C          62.2199   86.3655   12.2251 C.ar    1  UNL1        0.0177
     10 C          62.8168   85.8782   13.5121 C.ar    1  UNL1        0.1045
     11 N          63.7527   86.7589   14.2856 N.ar    1  UNL1       -0.2511
     12 C          64.0918   88.1269   13.7721 C.ar    1  UNL1        0.0563
     13 C          65.0278   89.0076   14.5457 C.3     1  UNL1        0.0473
     14 C          65.3668   90.3756   14.0322 C.3     1  UNL1        0.0281
     15 C          64.7700   90.8628   12.7452 C.3     1  UNL1        0.1002
     16 N          66.2587   94.6151   10.1239 N.am    1  UNL1       -0.2719
     17 C          66.1453   96.0383    9.6639 C.2     1  UNL1        0.2260
     18 O          66.4894   96.5533    8.2977 O.2     1  UNL1       -0.2749
     19 C          65.6273   96.8560   10.8098 C.3     1  UNL1        0.0875
     20 C          65.4207   95.9381   11.9780 C.3     1  UNL1        0.0388
     21 C          65.8109   94.5531   11.5542 C.3     1  UNL1        0.1525
     22 C          66.7361   93.4571    9.2986 C.3     1  UNL1        0.1100
     23 C          68.1195   92.9130    9.4991 C.3     1  UNL1        0.1268
     24 N          68.8245   91.5128   12.0569 N.1     1  UNL1       -0.1958
     25 C          68.4720   92.2129   10.7780 C.1     1  UNL1        0.0750
     26 S          62.8877   89.2183   11.0937 S.O2    1  UNL1        0.0106
     27 O          63.3656   88.8254   10.5909 O.2     1  UNL1       -0.1684
     28 O          61.7250   89.7896   11.8497 O.2     1  UNL1       -0.1684
     29 C          61.9413   88.4543   10.2157 C.ar    1  UNL1        0.1061
     30 C          62.4555   87.3484    9.3425 C.ar    1  UNL1        0.0207
     31 C          61.5092   86.5845    8.4645 C.ar    1  UNL1        0.0310
     32 C          60.0487   86.9265    8.4597 C.ar    1  UNL1        0.1402
     33 F          59.1023   86.1625    7.5817 F       1  UNL1       -0.2042
     34 C          59.5345   88.0325    9.3329 C.ar    1  UNL1        0.0310
     35 C          60.4808   88.7963   10.2109 C.ar    1  UNL1        0.0207
     36 C          62.4776   84.5102   14.0255 C.3     1  UNL1        0.3398
     37 F          61.4282   85.1050   14.9171 F       1  UNL1       -0.2160
     38 C          62.1385   83.1423   14.5390 C.3     1  UNL1        0.4378
     39 F          61.7993   81.7742   15.0524 F       1  UNL1       -0.1666
     40 F          62.2383   83.6465   15.9482 F       1  UNL1       -0.1666
     41 F          61.9980   82.4751   13.2029 F       1  UNL1       -0.1666
     42 C          63.5270   83.9154   13.1340 C.3     1  UNL1        0.4378
     43 F          64.5764   83.3205   12.2423 F       1  UNL1       -0.1666
     44 F          64.5438   83.6455   14.2031 F       1  UNL1       -0.1666
     45 F          62.9119   83.9644   11.7667 F       1  UNL1       -0.1666
@<TRIPOS>BOND
     1    24    25    3
     2    25    23    1
     3    23    22    1
     4    22    16    1
     5    16    17   am
     6    17    18    2
     7    17    19    1
     8    19    20    1
     9    20    21    1
    10    21     1    1
    11     1     2    2
    12     1     3   am
    13     3     4    1
    14     4     5    1
    15     5     6    1
    16     6    26    1
    17    26    27    2
    18    26    28    2
    19    26    29    1
    20    29    30   ar
    21    30    31   ar
    22    31    32   ar
    23    32    33    1
    24    32    34   ar
    25    34    35   ar
    26     6     7    1
    27     7     8   ar
    28     8     9   ar
    29     9    10   ar
    30    10    36    1
    31    36    37    1
    32    36    38    1
    33    38    39    1
    34    38    40    1
    35    38    41    1
    36    36    42    1
    37    42    43    1
    38    42    44    1
    39    42    45    1
    40    10    11   ar
    41    11    12   ar
    42    12    13    1
    43    13    14    1
    44    15    14    1
    45    21    16    1
    46    15     3    1
    47    15     6    1
    48    35    29   ar
    49    12     7   ar
@<TRIPOS>MOLECULE
*****
 45 49 0 0 0
SMALL
GASTEIGER

@<TRIPOS>ATOM
      1 C          65.7275   93.3457   12.3351 C.2     1  UNL1        0.2437
      2 O          66.5168   93.3035   13.6099 O.2     1  UNL1       -0.2731
      3 N          64.8939   92.1663   11.9296 N.am    1  UNL1       -0.2778
      4 C          64.0559   92.0634   10.6898 C.3     1  UNL1        0.0956
      5 C          63.3961   90.7163   10.6868 C.3     1  UNL1        0.0497
      6 C          63.8262   89.9867   11.9248 C.3     1  UNL1        0.1527
      7 C          63.4946   88.6221   12.4519 C.ar    1  UNL1        0.0130
      8 C          62.5689   87.7260   11.6838 C.ar    1  UNL1       -0.0002
      9 C          62.2373   86.3614   12.2109 C.ar    1  UNL1        0.0177
     10 C          62.8314   85.8929   13.5061 C.ar    1  UNL1        0.1045
     11 N          63.7570   86.7890   14.2742 N.ar    1  UNL1       -0.2511
     12 C          64.0887   88.1536   13.7471 C.ar    1  UNL1        0.0563
     13 C          65.0144   89.0498   14.5152 C.3     1  UNL1        0.0473
     14 C          65.3460   90.4144   13.9881 C.3     1  UNL1        0.0281
     15 C          64.7519   90.8829   12.6929 C.3     1  UNL1        0.1002
     16 N          66.2644   94.6244   10.0500 N.am    1  UNL1       -0.2719
     17 C          66.1282   96.0385    9.5686 C.2     1  UNL1        0.2260
     18 O          66.5032   96.5465    8.2079 O.2     1  UNL1       -0.2749
     19 C          65.5513   96.8553   10.6866 C.3     1  UNL1        0.0875
     20 C          65.3310   95.9460   11.8590 C.3     1  UNL1        0.0388
     21 C          65.7717   94.5671   11.4657 C.3     1  UNL1        0.1525
     22 C          66.7995   93.4701    9.2554 C.3     1  UNL1        0.1100
     23 C          68.1924   92.9713    9.5021 C.3     1  UNL1        0.1268
     24 N          68.8401   91.5302   12.0524 N.1     1  UNL1       -0.1958
     25 C          68.5162   92.2508   10.7772 C.1     1  UNL1        0.0750
     26 S          62.8898   89.2062   11.0509 S.O2    1  UNL1        0.0106
     27 O          63.3720   88.8264   10.5423 O.2     1  UNL1       -0.1684
     28 O          61.7210   89.7480   11.8191 O.2     1  UNL1       -0.1684
     29 C          61.9533   88.4255   10.1769 C.ar    1  UNL1        0.1061
     30 C          60.4917   88.7617   10.1556 C.ar    1  UNL1        0.0207
     31 C          59.5552   87.9812    9.2816 C.ar    1  UNL1        0.0310
     32 C          60.0805   86.8644    8.4291 C.ar    1  UNL1        0.1402
     33 F          59.1440   86.0838    7.5551 F       1  UNL1       -0.2042
     34 C          61.5422   86.5282    8.4504 C.ar    1  UNL1        0.0310
     35 C          62.4785   87.3088    9.3243 C.ar    1  UNL1        0.0207
     36 C          62.4997   84.5282   14.0332 C.3     1  UNL1        0.3398
     37 F          61.3681   85.1101   14.8275 F       1  UNL1       -0.2160
     38 C          62.1680   83.1636   14.5603 C.3     1  UNL1        0.4378
     39 F          61.8363   81.7990   15.0874 F       1  UNL1       -0.1666
     40 F          61.9421   82.6775   13.1594 F       1  UNL1       -0.1666
     41 F          62.3519   83.4798   16.0150 F       1  UNL1       -0.1666
     42 C          63.6313   83.9464   13.2389 C.3     1  UNL1        0.4378
     43 F          64.7629   83.3645   12.4446 F       1  UNL1       -0.1666
     44 F          62.9675   84.0175   11.8957 F       1  UNL1       -0.1666
     45 F          64.6890   83.6666   14.2651 F       1  UNL1       -0.1666
@<TRIPOS>BOND
     1    24    25    3
     2    25    23    1
     3    23    22    1
     4    22    16    1
     5    16    17   am
     6    17    18    2
     7    17    19    1
     8    19    20    1
     9    20    21    1
    10    21     1    1
    11     1     2    2
    12     1     3   am
    13     3     4    1
    14     4     5    1
    15     5     6    1
    16     6    26    1
    17    26    27    2
    18    26    28    2
    19    26    29    1
    20    29    30   ar
    21    30    31   ar
    22    31    32   ar
    23    32    33    1
    24    32    34   ar
    25    34    35   ar
    26     6     7    1
    27     7     8   ar
    28     8     9   ar
    29     9    10   ar
    30    10    36    1
    31    36    37    1
    32    36    38    1
    33    38    39    1
    34    38    40    1
    35    38    41    1
    36    36    42    1
    37    42    43    1
    38    42    44    1
    39    42    45    1
    40    10    11   ar
    41    11    12   ar
    42    12    13    1
    43    13    14    1
    44    15    14    1
    45    21    16    1
    46    15     3    1
    47    15     6    1
    48    35    29   ar
    49    12     7   ar
@<TRIPOS>MOLECULE
*****
 45 49 0 0 0
SMALL
GASTEIGER

@<TRIPOS>ATOM
      1 C          59.3793   88.8697    6.6701 C.2     1  UNL1        0.2437
      2 O          59.0001   87.5116    6.1586 O.2     1  UNL1       -0.2731
      3 N          60.1942   88.9986    7.9230 N.am    1  UNL1       -0.2778
      4 C          60.6469   90.2829    8.5520 C.3     1  UNL1        0.0956
      5 C          61.4319   89.9439    9.7845 C.3     1  UNL1        0.0497
      6 C          61.4643   88.4501    9.9170 C.3     1  UNL1        0.1527
      7 C          62.0916   87.5464   10.9368 C.ar    1  UNL1        0.0130
      8 C          62.8565   88.1306   12.0873 C.ar    1  UNL1       -0.0002
      9 C          63.4837   87.2268   13.1069 C.ar    1  UNL1        0.0177
     10 C          63.3460   85.7389   12.9762 C.ar    1  UNL1        0.1045
     11 N          62.5811   85.1547   11.8257 N.ar    1  UNL1       -0.2511
     12 C          61.9539   86.0584   10.8060 C.ar    1  UNL1        0.0563
     13 C          61.1890   85.4743    9.6555 C.3     1  UNL1        0.0473
     14 C          60.5617   86.3780    8.6358 C.3     1  UNL1        0.0281
     15 C          60.6994   87.8659    8.7666 C.3     1  UNL1        0.1002
     16 N          59.8391   91.0385    5.1769 N.am    1  UNL1       -0.2719
     17 C          58.9853   92.1247    4.5928 C.2     1  UNL1        0.2260
     18 O          59.4695   93.2768    3.7632 O.2     1  UNL1       -0.2749
     19 C          57.5622   91.8564    4.9839 C.3     1  UNL1        0.0875
     20 C          57.5366   90.6045    5.8097 C.3     1  UNL1        0.0388
     21 C          58.9439   90.0989    5.9290 C.3     1  UNL1        0.1525
     22 C          61.3271   90.9137    5.0339 C.3     1  UNL1        0.1100
     23 C          61.9413   90.7821    3.6717 C.3     1  UNL1        0.1268
     24 N          63.4600   93.0799    2.4827 N.1     1  UNL1       -0.1958
     25 C          62.7006   91.9310    3.0772 C.1     1  UNL1        0.0750
     26 S          62.1955   89.1755   11.0075 S.O2    1  UNL1        0.0106
     27 O          62.9305   89.2735   10.7148 O.2     1  UNL1       -0.1684
     28 O          60.9525   89.1663   11.8471 O.2     1  UNL1       -0.1684
     29 C          62.9267   89.9009   12.0981 C.ar    1  UNL1        0.1061
     30 C          64.1090   90.7615   11.7644 C.ar    1  UNL1        0.0207
     31 C          64.8402   91.4869   12.8549 C.ar    1  UNL1        0.0310
     32 C          64.3891   91.3516   14.2790 C.ar    1  UNL1        0.1402
     33 F          65.1204   92.0770   15.3695 F       1  UNL1       -0.2042
     34 C          63.2068   90.4909   14.6127 C.ar    1  UNL1        0.0310
     35 C          62.4756   89.7656   13.5222 C.ar    1  UNL1        0.0207
     36 C          63.9733   84.8352   13.9959 C.3     1  UNL1        0.3398
     37 F          64.8896   85.9458   14.4165 F       1  UNL1       -0.2160
     38 C          64.6006   83.9315   15.0156 C.3     1  UNL1        0.4378
     39 F          65.2279   83.0278   16.0354 F       1  UNL1       -0.1666
     40 F          65.9622   84.3056   14.5096 F       1  UNL1       -0.1666
     41 F          63.3256   83.4501   15.6423 F       1  UNL1       -0.1666
     42 C          63.0570   83.7246   13.5754 C.3     1  UNL1        0.4378
     43 F          62.1407   82.6139   13.1548 F       1  UNL1       -0.1666
     44 F          64.0933   82.8804   12.8946 F       1  UNL1       -0.1666
     45 F          61.7130   84.1487   14.0890 F       1  UNL1       -0.1666
@<TRIPOS>BOND
     1    24    25    3
     2    25    23    1
     3    23    22    1
     4    22    16    1
     5    16    17   am
     6    17    18    2
     7    17    19    1
     8    19    20    1
     9    20    21    1
    10    21     1    1
    11     1     2    2
    12     1     3   am
    13     3     4    1
    14     4     5    1
    15     5     6    1
    16     6    26    1
    17    26    27    2
    18    26    28    2
    19    26    29    1
    20    29    30   ar
    21    30    31   ar
    22    31    32   ar
    23    32    33    1
    24    32    34   ar
    25    34    35   ar
    26     6     7    1
    27     7     8   ar
    28     8     9   ar
    29     9    10   ar
    30    10    36    1
    31    36    37    1
    32    36    38    1
    33    38    39    1
    34    38    40    1
    35    38    41    1
    36    36    42    1
    37    42    43    1
    38    42    44    1
    39    42    45    1
    40    10    11   ar
    41    11    12   ar
    42    12    13    1
    43    13    14    1
    44    15    14    1
    45    21    16    1
    46    15     3    1
    47    15     6    1
    48    35    29   ar
    49    12     7   ar
@<TRIPOS>MOLECULE
*****
 45 49 0 0 0
SMALL
GASTEIGER

@<TRIPOS>ATOM
      1 C          65.2998   91.4892   13.5628 C.2     1  UNL1        0.2437
      2 O          65.8715   91.2724   14.9326 O.2     1  UNL1       -0.2731
      3 N          64.5594   90.3807   12.8750 N.am    1  UNL1       -0.2778
      4 C          63.9360   90.4495   11.5124 C.3     1  UNL1        0.0956
      5 C          63.3037   89.1201   11.2243 C.3     1  UNL1        0.0497
      6 C          63.5363   88.2298   12.4088 C.3     1  UNL1        0.1527
      7 C          63.1417   86.8102   12.6903 C.ar    1  UNL1        0.0130
      8 C          62.3657   86.0312   11.6701 C.ar    1  UNL1       -0.0002
      9 C          61.9711   84.6117   11.9516 C.ar    1  UNL1        0.0177
     10 C          62.3526   83.9712   13.2532 C.ar    1  UNL1        0.1045
     11 N          63.1286   84.7503   14.2734 N.ar    1  UNL1       -0.2511
     12 C          63.5232   86.1698   13.9919 C.ar    1  UNL1        0.0563
     13 C          64.2992   86.9489   15.0122 C.3     1  UNL1        0.0473
     14 C          64.6938   88.3684   14.7307 C.3     1  UNL1        0.0281
     15 C          64.3124   89.0089   13.4290 C.3     1  UNL1        0.1002
     16 N          66.1069   94.0359   13.4731 N.am    1  UNL1       -0.2719
     17 C          66.0615   95.1274   12.4452 C.2     1  UNL1        0.2260
     18 O          66.5898   96.5210   12.6152 O.2     1  UNL1       -0.2749
     19 C          65.3951   94.5806   11.2177 C.3     1  UNL1        0.0875
     20 C          65.0286   93.1512   11.4869 C.3     1  UNL1        0.0388
     21 C          65.4686   92.8145   12.8809 C.3     1  UNL1        0.1525
     22 C          66.6886   94.1463   14.8514 C.3     1  UNL1        0.1100
     23 C          68.0161   93.5186   15.1577 C.3     1  UNL1        0.1268
     24 N          69.3438   91.7518   13.1290 N.1     1  UNL1       -0.1958
     25 C          68.6799   92.6352   14.1433 C.1     1  UNL1        0.0750
     26 S          62.7654   87.5794   11.2987 S.O2    1  UNL1        0.0106
     27 O          63.3232   87.2031   10.8711 O.2     1  UNL1       -0.1684
     28 O          61.4914   88.1467   11.8509 O.2     1  UNL1       -0.1684
     29 C          61.9944   86.9288   10.1884 C.ar    1  UNL1        0.1061
     30 C          60.5211   87.1757   10.0536 C.ar    1  UNL1        0.0207
     31 C          59.7501   86.5253    8.9435 C.ar    1  UNL1        0.0310
     32 C          60.4525   85.6279    7.9681 C.ar    1  UNL1        0.1402
     33 F          59.6815   84.9774    6.8579 F       1  UNL1       -0.2042
     34 C          61.9259   85.3810    8.1030 C.ar    1  UNL1        0.0310
     35 C          62.6968   86.0315    9.2131 C.ar    1  UNL1        0.0207
     36 C          61.9579   82.5516   13.5347 C.3     1  UNL1        0.3398
     37 F          61.1367   83.0115   14.7026 F       1  UNL1       -0.2160
     38 C          61.5633   81.1322   13.8162 C.3     1  UNL1        0.4378
     39 F          61.1686   79.7126   14.0976 F       1  UNL1       -0.1666
     40 F          63.0079   80.7286   13.8066 F       1  UNL1       -0.1666
     41 F          60.0813   81.3596   13.8600 F       1  UNL1       -0.1666
     42 C          62.7791   82.0918   12.3668 C.3     1  UNL1        0.4378
     43 F          63.6005   81.6319   11.1988 F       1  UNL1       -0.1666
     44 F          61.6617   81.4507   11.5986 F       1  UNL1       -0.1666
     45 F          64.1683   82.5524   12.6960 F       1  UNL1       -0.1666
@<TRIPOS>BOND
     1    24    25    3
     2    25    23    1
     3    23    22    1
     4    22    16    1
     5    16    17   am
     6    17    18    2
     7    17    19    1
     8    19    20    1
     9    20    21    1
    10    21     1    1
    11     1     2    2
    12     1     3   am
    13     3     4    1
    14     4     5    1
    15     5     6    1
    16     6    26    1
    17    26    27    2
    18    26    28    2
    19    26    29    1
    20    29    30   ar
    21    30    31   ar
    22    31    32   ar
    23    32    33    1
    24    32    34   ar
    25    34    35   ar
    26     6     7    1
    27     7     8   ar
    28     8     9   ar
    29     9    10   ar
    30    10    36    1
    31    36    37    1
    32    36    38    1
    33    38    39    1
    34    38    40    1
    35    38    41    1
    36    36    42    1
    37    42    43    1
    38    42    44    1
    39    42    45    1
    40    10    11   ar
    41    11    12   ar
    42    12    13    1
    43    13    14    1
    44    15    14    1
    45    21    16    1
    46    15     3    1
    47    15     6    1
    48    35    29   ar
    49    12     7   ar
