@<TRIPOS>MOLECULE
*****
 34 38 0 0 0
SMALL
GASTEIGER

@<TRIPOS>ATOM
      1 C          62.7471   86.8766   11.9022 C.2     1  UNL1        0.2506
      2 O          63.5254   87.4862   13.0303 O.2     1  UNL1       -0.2699
      3 N          61.7627   87.7084   11.1348 N.am    1  UNL1       -0.2723
      4 C          60.9844   87.0988   10.0065 C.3     1  UNL1        0.1257
      5 C          60.0000   87.9306    9.2391 C.3     1  UNL1        0.1637
      6 O          59.7938   89.3719    9.5998 O.3     1  UNL1       -0.3502
      7 C          60.5720   89.9814   10.7279 C.3     1  UNL1        0.1622
      8 C          61.5565   89.1497   11.4954 C.3     1  UNL1        0.1097
      9 C          63.5719   81.1113   10.4595 C.3     1  UNL1        0.0307
     10 C          63.3657   82.5526   10.8202 C.ar    1  UNL1       -0.0243
     11 C          63.1985   83.5796    9.7398 C.ar    1  UNL1       -0.0043
     12 C          62.9923   85.0209   10.1005 C.ar    1  UNL1        0.0057
     13 C          62.9533   85.4353   11.5415 C.ar    1  UNL1        0.0726
     14 C          63.1206   84.4083   12.6219 C.ar    1  UNL1        0.1029
     15 C          63.3268   82.9670   12.2613 C.ar    1  UNL1       -0.0062
     16 C          63.4940   81.9400   13.3418 C.3     1  UNL1        0.0323
     17 N          63.0817   84.8226   14.0631 N.ar    1  UNL1       -0.1480
     18 N          61.8811   84.7779   14.9612 N.ar    1  UNL1       -0.1447
     19 C          62.2938   85.2820   16.3123 C.ar    1  UNL1        0.1446
     20 C          63.7496   85.6383   16.2492 C.ar    1  UNL1        0.1446
     21 N          64.2364   85.3544   14.8591 N.ar    1  UNL1       -0.1447
     22 C          62.3348   89.7592   12.6236 C.3     1  UNL1        0.0510
     23 C          63.4642   90.7024   12.3321 C.ar    1  UNL1        0.0071
     24 C          64.3585   91.1675   13.4428 C.ar    1  UNL1        0.0012
     25 C          65.4879   92.1107   13.1513 C.ar    1  UNL1        0.0389
     26 C          65.7229   92.5887   11.7491 C.ar    1  UNL1        0.0054
     27 C          64.8286   92.1235   10.6384 C.ar    1  UNL1        0.0294
     28 C          63.6992   91.1804   10.9299 C.ar    1  UNL1        0.1362
     29 F          62.8048   90.7152    9.8191 F       1  UNL1       -0.2045
     30 C          66.3822   92.5758   14.2621 C.ar    1  UNL1        0.2037
     31 N          67.8487   92.8703   14.1488 N.ar    1  UNL1       -0.1829
     32 C          68.3400   93.3046   15.4978 C.ar    1  UNL1        0.3164
     33 O          67.1770   93.2786   16.4450 O.2     1  UNL1       -0.3274
     34 N          65.9671   92.8282   15.6813 N.ar    1  UNL1       -0.0554
@<TRIPOS>BOND
     1     9    10    1
     2    10    11   ar
     3    11    12   ar
     4    12    13   ar
     5    13     1    1
     6     1     2    2
     7     1     3   am
     8     3     4    1
     9     4     5    1
    10     5     6    1
    11     6     7    1
    12     7     8    1
    13     8    22    1
    14    22    23    1
    15    23    24   ar
    16    24    25   ar
    17    25    30    1
    18    30    31   ar
    19    31    32   ar
    20    32    33   ar
    21    33    34   ar
    22    25    26   ar
    23    26    27   ar
    24    27    28   ar
    25    28    29    1
    26    13    14   ar
    27    14    17    1
    28    17    18   ar
    29    18    19   ar
    30    19    20   ar
    31    20    21   ar
    32    14    15   ar
    33    15    16    1
    34    15    10   ar
    35     8     3    1
    36    28    23   ar
    37    21    17   ar
    38    34    30   ar
@<TRIPOS>MOLECULE
*****
 34 38 0 0 0
SMALL
GASTEIGER

@<TRIPOS>ATOM
      1 C          62.9922   87.0763   12.2801 C.2     1  UNL1        0.2506
      2 O          63.5618   87.4814   13.6072 O.2     1  UNL1       -0.2699
      3 N          62.3310   88.0987   11.4041 N.am    1  UNL1       -0.2723
      4 C          61.7613   87.6936   10.0769 C.3     1  UNL1        0.1257
      5 C          61.1001   88.7160    9.2009 C.3     1  UNL1        0.1637
      6 O          61.0084   90.1436    9.6521 O.3     1  UNL1       -0.3502
      7 C          61.5780   90.5488   10.9793 C.3     1  UNL1        0.1622
      8 C          62.2393   89.5263   11.8553 C.3     1  UNL1        0.1097
      9 C          63.3589   81.3659   10.4753 C.3     1  UNL1        0.0307
     10 C          63.2672   82.7935   10.9265 C.ar    1  UNL1       -0.0243
     11 C          63.1979   83.8973    9.9133 C.ar    1  UNL1       -0.0043
     12 C          63.1063   85.3249   10.3645 C.ar    1  UNL1        0.0057
     13 C          63.0839   85.6487   11.8289 C.ar    1  UNL1        0.0726
     14 C          63.1532   84.5449   12.8421 C.ar    1  UNL1        0.1029
     15 C          63.2448   83.1173   12.3909 C.ar    1  UNL1       -0.0062
     16 C          63.3141   82.0134   13.4043 C.3     1  UNL1        0.0323
     17 N          63.1308   84.8686   14.3067 N.ar    1  UNL1       -0.1480
     18 N          61.9205   84.8614   15.1928 N.ar    1  UNL1       -0.1447
     19 C          62.3565   85.2447   16.5759 C.ar    1  UNL1        0.1446
     20 C          63.8362   85.4888   16.5446 C.ar    1  UNL1        0.1446
     21 N          64.3147   85.2563   15.1421 N.ar    1  UNL1       -0.1447
     22 C          62.8089   89.9315   13.1825 C.3     1  UNL1        0.0510
     23 C          64.1115   90.6726   13.2448 C.ar    1  UNL1        0.0071
     24 C          64.5243   91.5607   12.1087 C.ar    1  UNL1        0.0012
     25 C          65.8269   92.3018   12.1711 C.ar    1  UNL1        0.0389
     26 C          66.7168   92.1548   13.3696 C.ar    1  UNL1        0.0054
     27 C          66.3041   91.2666   14.5057 C.ar    1  UNL1        0.0294
     28 C          65.0014   90.5255   14.4433 C.ar    1  UNL1        0.1362
     29 F          64.5887   89.6373   15.5795 F       1  UNL1       -0.2045
     30 C          66.2396   93.1900   11.0349 C.ar    1  UNL1        0.2037
     31 N          67.4273   92.9849   10.1420 N.ar    1  UNL1       -0.1829
     32 C          67.4589   94.1073    9.1474 C.ar    1  UNL1        0.3164
     33 O          66.2906   95.0062    9.4257 O.2     1  UNL1       -0.3274
     34 N          65.5371   94.4392   10.5922 N.ar    1  UNL1       -0.0554
@<TRIPOS>BOND
     1     9    10    1
     2    10    11   ar
     3    11    12   ar
     4    12    13   ar
     5    13     1    1
     6     1     2    2
     7     1     3   am
     8     3     4    1
     9     4     5    1
    10     5     6    1
    11     6     7    1
    12     7     8    1
    13     8    22    1
    14    22    23    1
    15    23    24   ar
    16    24    25   ar
    17    25    30    1
    18    30    31   ar
    19    31    32   ar
    20    32    33   ar
    21    33    34   ar
    22    25    26   ar
    23    26    27   ar
    24    27    28   ar
    25    28    29    1
    26    13    14   ar
    27    14    17    1
    28    17    18   ar
    29    18    19   ar
    30    19    20   ar
    31    20    21   ar
    32    14    15   ar
    33    15    16    1
    34    15    10   ar
    35     8     3    1
    36    28    23   ar
    37    21    17   ar
    38    34    30   ar
@<TRIPOS>MOLECULE
*****
 34 38 0 0 0
SMALL
GASTEIGER

@<TRIPOS>ATOM
      1 C          62.7460   88.9197   11.6559 C.2     1  UNL1        0.2506
      2 O          62.9405   87.7693   12.5986 O.2     1  UNL1       -0.2699
      3 N          61.7121   88.8349   10.5724 N.am    1  UNL1       -0.2723
      4 C          61.5176   89.9853    9.6297 C.3     1  UNL1        0.1257
      5 C          60.4838   89.9006    8.5462 C.3     1  UNL1        0.1637
      6 O          59.6444   88.6654    8.4054 O.3     1  UNL1       -0.3502
      7 C          59.8389   87.5150    9.3481 C.3     1  UNL1        0.1622
      8 C          60.8728   87.5997   10.4317 C.3     1  UNL1        0.1097
      9 C          66.1033   93.8604   12.2191 C.3     1  UNL1        0.0307
     10 C          65.2640   92.6252   12.0783 C.ar    1  UNL1       -0.0243
     11 C          64.7165   92.2395   10.7361 C.ar    1  UNL1       -0.0043
     12 C          63.8771   91.0043   10.5953 C.ar    1  UNL1        0.0057
     13 C          63.5853   90.1549   11.7967 C.ar    1  UNL1        0.0726
     14 C          64.1328   90.5406   13.1388 C.ar    1  UNL1        0.1029
     15 C          64.9721   91.7758   13.2796 C.ar    1  UNL1       -0.0062
     16 C          65.5196   92.1616   14.6218 C.3     1  UNL1        0.0323
     17 N          63.8410   89.6912   14.3403 N.ar    1  UNL1       -0.1480
     18 N          64.5252   88.4052   14.6980 N.ar    1  UNL1       -0.1447
     19 C          63.9209   87.8978   15.9737 C.ar    1  UNL1        0.1446
     20 C          62.8631   88.8703   16.4043 C.ar    1  UNL1        0.1446
     21 N          62.8137   89.9787   15.3948 N.ar    1  UNL1       -0.1447
     22 C          61.0673   86.4493   11.3743 C.3     1  UNL1        0.0510
     23 C          61.9885   85.3245   11.0051 C.ar    1  UNL1        0.0071
     24 C          62.1401   84.1474   11.9222 C.ar    1  UNL1        0.0012
     25 C          63.0612   83.0226   11.5530 C.ar    1  UNL1        0.0389
     26 C          63.8308   83.0750   10.2665 C.ar    1  UNL1        0.0054
     27 C          63.6791   84.2521    9.3493 C.ar    1  UNL1        0.0294
     28 C          62.7580   85.3769    9.7186 C.ar    1  UNL1        0.1362
     29 F          62.6064   86.5541    8.8013 F       1  UNL1       -0.2045
     30 C          63.2128   81.8454   12.4702 C.ar    1  UNL1        0.2037
     31 N          62.5057   80.5290   12.3395 N.ar    1  UNL1       -0.1829
     32 C          62.9539   79.6480   13.4677 C.ar    1  UNL1        0.3164
     33 O          63.9382   80.4199   14.2957 O.2     1  UNL1       -0.3274
     34 N          64.0981   81.7779   13.6792 N.ar    1  UNL1       -0.0554
@<TRIPOS>BOND
     1     9    10    1
     2    10    11   ar
     3    11    12   ar
     4    12    13   ar
     5    13     1    1
     6     1     2    2
     7     1     3   am
     8     3     4    1
     9     4     5    1
    10     5     6    1
    11     6     7    1
    12     7     8    1
    13     8    22    1
    14    22    23    1
    15    23    24   ar
    16    24    25   ar
    17    25    30    1
    18    30    31   ar
    19    31    32   ar
    20    32    33   ar
    21    33    34   ar
    22    25    26   ar
    23    26    27   ar
    24    27    28   ar
    25    28    29    1
    26    13    14   ar
    27    14    17    1
    28    17    18   ar
    29    18    19   ar
    30    19    20   ar
    31    20    21   ar
    32    14    15   ar
    33    15    16    1
    34    15    10   ar
    35     8     3    1
    36    28    23   ar
    37    21    17   ar
    38    34    30   ar
@<TRIPOS>MOLECULE
*****
 34 38 0 0 0
SMALL
GASTEIGER

@<TRIPOS>ATOM
      1 C          63.4972   87.4477   13.2443 C.2     1  UNL1        0.2506
      2 O          63.4757   88.0777   11.8832 O.2     1  UNL1       -0.2699
      3 N          63.3814   88.3051   14.4695 N.am    1  UNL1       -0.2723
      4 C          63.4028   87.6751   15.8307 C.3     1  UNL1        0.1257
      5 C          63.2870   88.5326   17.0559 C.3     1  UNL1        0.1637
      6 O          63.1497   90.0201   16.9201 O.3     1  UNL1       -0.3502
      7 C          63.1282   90.6501   15.5591 C.3     1  UNL1        0.1622
      8 C          63.2441   89.7926   14.3337 C.3     1  UNL1        0.1097
      9 C          64.0464   81.4976   13.7876 C.3     1  UNL1        0.0307
     10 C          63.9091   82.9851   13.6518 C.ar    1  UNL1       -0.0243
     11 C          64.5242   83.8917   14.6763 C.ar    1  UNL1       -0.0043
     12 C          64.3869   85.3792   14.5404 C.ar    1  UNL1        0.0057
     13 C          63.6345   85.9601   13.3801 C.ar    1  UNL1        0.0726
     14 C          63.0194   85.0535   12.3556 C.ar    1  UNL1        0.1029
     15 C          63.1567   83.5660   12.4914 C.ar    1  UNL1       -0.0062
     16 C          62.5415   82.6594   11.4668 C.3     1  UNL1        0.0323
     17 N          62.2669   85.6344   11.1952 N.ar    1  UNL1       -0.1480
     18 N          62.6704   85.5524    9.7528 N.ar    1  UNL1       -0.1447
     19 C          61.6318   86.2666    8.9396 C.ar    1  UNL1        0.1446
     20 C          60.5864   86.7900    9.8795 C.ar    1  UNL1        0.1446
     21 N          60.9790   86.3993   11.2735 N.ar    1  UNL1       -0.1447
     22 C          63.2226   90.4227   12.9727 C.3     1  UNL1        0.0510
     23 C          64.3402   91.3285   12.5478 C.ar    1  UNL1        0.0071
     24 C          65.4377   91.6686   13.5120 C.ar    1  UNL1        0.0012
     25 C          66.5553   92.5744   13.0871 C.ar    1  UNL1        0.0389
     26 C          66.5754   93.1400   11.6980 C.ar    1  UNL1        0.0054
     27 C          65.4779   92.7999   10.7338 C.ar    1  UNL1        0.0294
     28 C          64.3603   91.8941   11.1587 C.ar    1  UNL1        0.1362
     29 F          63.2627   91.5540   10.1944 F       1  UNL1       -0.2045
     30 C          67.6529   92.9145   14.0514 C.ar    1  UNL1        0.2037
     31 N          67.5372   93.8355   15.2297 N.ar    1  UNL1       -0.1829
     32 C          68.8716   93.8836   15.9132 C.ar    1  UNL1        0.3164
     33 O          69.8119   92.9923   15.1572 O.2     1  UNL1       -0.3274
     34 N          69.0587   92.3934   14.0066 N.ar    1  UNL1       -0.0554
@<TRIPOS>BOND
     1     9    10    1
     2    10    11   ar
     3    11    12   ar
     4    12    13   ar
     5    13     1    1
     6     1     2    2
     7     1     3   am
     8     3     4    1
     9     4     5    1
    10     5     6    1
    11     6     7    1
    12     7     8    1
    13     8    22    1
    14    22    23    1
    15    23    24   ar
    16    24    25   ar
    17    25    30    1
    18    30    31   ar
    19    31    32   ar
    20    32    33   ar
    21    33    34   ar
    22    25    26   ar
    23    26    27   ar
    24    27    28   ar
    25    28    29    1
    26    13    14   ar
    27    14    17    1
    28    17    18   ar
    29    18    19   ar
    30    19    20   ar
    31    20    21   ar
    32    14    15   ar
    33    15    16    1
    34    15    10   ar
    35     8     3    1
    36    28    23   ar
    37    21    17   ar
    38    34    30   ar
@<TRIPOS>MOLECULE
*****
 34 38 0 0 0
SMALL
GASTEIGER

@<TRIPOS>ATOM
      1 C          62.7081   88.6969   11.6363 C.2     1  UNL1        0.2506
      2 O          62.5708   90.1899   11.5931 O.2     1  UNL1       -0.2699
      3 N          63.3730   88.0385   12.8086 N.am    1  UNL1       -0.2723
      4 C          63.5103   86.5454   12.8519 C.3     1  UNL1        0.1257
      5 C          64.1752   85.8870   14.0242 C.3     1  UNL1        0.1637
      6 O          64.7027   86.7217   15.1534 O.3     1  UNL1       -0.3502
      7 C          64.5654   88.2148   15.1102 C.3     1  UNL1        0.1622
      8 C          63.9005   88.8732   13.9378 C.3     1  UNL1        0.1097
      9 C          60.5978   85.3581    7.1197 C.3     1  UNL1        0.0307
     10 C          61.1253   86.1928    8.2489 C.ar    1  UNL1       -0.0243
     11 C          62.5612   86.0701    8.6651 C.ar    1  UNL1       -0.0043
     12 C          63.0887   86.9047    9.7942 C.ar    1  UNL1        0.0057
     13 C          62.1805   87.8622   10.5071 C.ar    1  UNL1        0.0726
     14 C          60.7447   87.9850   10.0909 C.ar    1  UNL1        0.1029
     15 C          60.2171   87.1503    8.9618 C.ar    1  UNL1       -0.0062
     16 C          58.7812   87.2731    8.5456 C.3     1  UNL1        0.0323
     17 N          59.8363   88.9425   10.8039 N.ar    1  UNL1       -0.1480
     18 N          59.0034   88.6336   12.0126 N.ar    1  UNL1       -0.1447
     19 C          58.2538   89.8771   12.3890 C.ar    1  UNL1        0.1446
     20 C          58.6234   90.9545   11.4129 C.ar    1  UNL1        0.1446
     21 N          59.6014   90.3768   10.4333 N.ar    1  UNL1       -0.1447
     22 C          63.7632   90.3663   13.8946 C.3     1  UNL1        0.0510
     23 C          64.9876   91.2327   13.9063 C.ar    1  UNL1        0.0071
     24 C          65.6641   91.5925   12.6168 C.ar    1  UNL1        0.0012
     25 C          66.8885   92.4590   12.6285 C.ar    1  UNL1        0.0389
     26 C          67.4364   92.9656   13.9297 C.ar    1  UNL1        0.0054
     27 C          66.7599   92.6057   15.2192 C.ar    1  UNL1        0.0294
     28 C          65.5355   91.7393   15.2075 C.ar    1  UNL1        0.1362
     29 F          64.8590   91.3795   16.4970 F       1  UNL1       -0.2045
     30 C          67.5651   92.8188   11.3389 C.ar    1  UNL1        0.2037
     31 N          68.4766   91.9315   10.5440 N.ar    1  UNL1       -0.1829
     32 C          68.9237   92.6934    9.3317 C.ar    1  UNL1        0.3164
     33 O          68.2885   94.0515    9.3774 O.2     1  UNL1       -0.3274
     34 N          67.4488   94.1290   10.6180 N.ar    1  UNL1       -0.0554
@<TRIPOS>BOND
     1     9    10    1
     2    10    11   ar
     3    11    12   ar
     4    12    13   ar
     5    13     1    1
     6     1     2    2
     7     1     3   am
     8     3     4    1
     9     4     5    1
    10     5     6    1
    11     6     7    1
    12     7     8    1
    13     8    22    1
    14    22    23    1
    15    23    24   ar
    16    24    25   ar
    17    25    30    1
    18    30    31   ar
    19    31    32   ar
    20    32    33   ar
    21    33    34   ar
    22    25    26   ar
    23    26    27   ar
    24    27    28   ar
    25    28    29    1
    26    13    14   ar
    27    14    17    1
    28    17    18   ar
    29    18    19   ar
    30    19    20   ar
    31    20    21   ar
    32    14    15   ar
    33    15    16    1
    34    15    10   ar
    35     8     3    1
    36    28    23   ar
    37    21    17   ar
    38    34    30   ar
@<TRIPOS>MOLECULE
*****
 34 38 0 0 0
SMALL
GASTEIGER

@<TRIPOS>ATOM
      1 C          63.7106   87.8853   13.4079 C.2     1  UNL1        0.2506
      2 O          63.8526   88.5916   12.0922 O.2     1  UNL1       -0.2699
      3 N          63.5260   88.6775   14.6681 N.am    1  UNL1       -0.2723
      4 C          63.3840   87.9713   15.9839 C.3     1  UNL1        0.1257
      5 C          63.1994   88.7635   17.2442 C.3     1  UNL1        0.1637
      6 O          63.1568   90.2618   17.1888 O.3     1  UNL1       -0.3502
      7 C          63.2988   90.9680   15.8731 C.3     1  UNL1        0.1622
      8 C          63.4834   90.1759   14.6127 C.3     1  UNL1        0.1097
      9 C          63.8811   81.8919   13.6295 C.3     1  UNL1        0.0307
     10 C          63.8385   83.3902   13.5741 C.ar    1  UNL1       -0.0243
     11 C          64.6032   84.2000   14.5788 C.ar    1  UNL1       -0.0043
     12 C          64.5605   85.6983   14.5234 C.ar    1  UNL1        0.0057
     13 C          63.7532   86.3870   13.4633 C.ar    1  UNL1        0.0726
     14 C          62.9886   85.5773   12.4585 C.ar    1  UNL1        0.1029
     15 C          63.0312   84.0789   12.5139 C.ar    1  UNL1       -0.0062
     16 C          62.2664   83.2692   11.5091 C.3     1  UNL1        0.0323
     17 N          62.1812   86.2659   11.3983 N.ar    1  UNL1       -0.1480
     18 N          60.9071   87.0272   11.6156 N.ar    1  UNL1       -0.1447
     19 C          60.4446   87.5459   10.2863 C.ar    1  UNL1        0.1446
     20 C          61.4330   87.1053    9.2474 C.ar    1  UNL1        0.1446
     21 N          62.5062   86.3142    9.9347 N.ar    1  UNL1       -0.1447
     22 C          63.6254   90.8821   13.2971 C.3     1  UNL1        0.0510
     23 C          64.9009   91.5976   12.9637 C.ar    1  UNL1        0.0071
     24 C          64.9293   92.5990   11.8473 C.ar    1  UNL1        0.0012
     25 C          66.2048   93.3146   11.5140 C.ar    1  UNL1        0.0389
     26 C          67.4518   93.0287   12.2970 C.ar    1  UNL1        0.0054
     27 C          67.4234   92.0272   13.4133 C.ar    1  UNL1        0.0294
     28 C          66.1479   91.3117   13.7467 C.ar    1  UNL1        0.1362
     29 F          66.1195   90.3102   14.8631 F       1  UNL1       -0.2045
     30 C          66.2332   94.3160   10.3975 C.ar    1  UNL1        0.2037
     31 N          67.0508   94.2159    9.1439 N.ar    1  UNL1       -0.1829
     32 C          66.7720   95.4314    8.3103 C.ar    1  UNL1        0.3164
     33 O          65.7820   96.2827    9.0488 O.2     1  UNL1       -0.3274
     34 N          65.4491   95.5934   10.3388 N.ar    1  UNL1       -0.0554
@<TRIPOS>BOND
     1     9    10    1
     2    10    11   ar
     3    11    12   ar
     4    12    13   ar
     5    13     1    1
     6     1     2    2
     7     1     3   am
     8     3     4    1
     9     4     5    1
    10     5     6    1
    11     6     7    1
    12     7     8    1
    13     8    22    1
    14    22    23    1
    15    23    24   ar
    16    24    25   ar
    17    25    30    1
    18    30    31   ar
    19    31    32   ar
    20    32    33   ar
    21    33    34   ar
    22    25    26   ar
    23    26    27   ar
    24    27    28   ar
    25    28    29    1
    26    13    14   ar
    27    14    17    1
    28    17    18   ar
    29    18    19   ar
    30    19    20   ar
    31    20    21   ar
    32    14    15   ar
    33    15    16    1
    34    15    10   ar
    35     8     3    1
    36    28    23   ar
    37    21    17   ar
    38    34    30   ar
@<TRIPOS>MOLECULE
*****
 34 38 0 0 0
SMALL
GASTEIGER

@<TRIPOS>ATOM
      1 C          63.5261   87.4740   13.5975 C.2     1  UNL1        0.2506
      2 O          63.5436   88.6583   12.6771 O.2     1  UNL1       -0.2699
      3 N          63.3896   87.6764   15.0775 N.am    1  UNL1       -0.2723
      4 C          63.3720   86.4921   15.9980 C.3     1  UNL1        0.1257
      5 C          63.2355   86.6945   17.4779 C.3     1  UNL1        0.1637
      6 O          63.1167   88.0811   18.0375 O.3     1  UNL1       -0.3502
      7 C          63.1343   89.2654   17.1171 C.3     1  UNL1        0.1622
      8 C          63.2707   89.0630   15.6370 C.3     1  UNL1        0.1097
      9 C          64.0015   81.9275   11.3592 C.3     1  UNL1        0.0307
     10 C          63.8826   83.3141   11.9188 C.ar    1  UNL1       -0.0243
     11 C          64.6230   83.6841   13.1697 C.ar    1  UNL1       -0.0043
     12 C          64.5041   85.0707   13.7293 C.ar    1  UNL1        0.0057
     13 C          63.6449   86.0874   13.0379 C.ar    1  UNL1        0.0726
     14 C          62.9046   85.7174   11.7870 C.ar    1  UNL1        0.1029
     15 C          63.0234   84.3308   11.2274 C.ar    1  UNL1       -0.0062
     16 C          62.2830   83.9608    9.9764 C.3     1  UNL1        0.0323
     17 N          62.0453   86.7341   11.0955 N.ar    1  UNL1       -0.1480
     18 N          62.3983   87.4823    9.8442 N.ar    1  UNL1       -0.1447
     19 C          61.2534   88.3917    9.5092 C.ar    1  UNL1        0.1446
     20 C          60.1928   88.2055   10.5536 C.ar    1  UNL1        0.1446
     21 N          60.6822   87.1811   11.5339 N.ar    1  UNL1       -0.1447
     22 C          63.2883   90.2473   14.7166 C.3     1  UNL1        0.0510
     23 C          64.5033   91.1242   14.6458 C.ar    1  UNL1        0.0071
     24 C          65.2124   91.3190   13.3385 C.ar    1  UNL1        0.0012
     25 C          66.4273   92.1959   13.2677 C.ar    1  UNL1        0.0389
     26 C          66.9331   92.8779   14.5042 C.ar    1  UNL1        0.0054
     27 C          66.2240   92.6831   15.8115 C.ar    1  UNL1        0.0294
     28 C          65.0090   91.8062   15.8823 C.ar    1  UNL1        0.1362
     29 F          64.2999   91.6114   17.1897 F       1  UNL1       -0.2045
     30 C          67.1365   92.3907   11.9603 C.ar    1  UNL1        0.2037
     31 N          66.5783   93.0752   10.7479 N.ar    1  UNL1       -0.1829
     32 C          67.6251   93.0428    9.6740 C.ar    1  UNL1        0.3164
     33 O          68.8303   92.3382   10.2228 O.2     1  UNL1       -0.3274
     34 N          68.5283   91.9352   11.6358 N.ar    1  UNL1       -0.0554
@<TRIPOS>BOND
     1     9    10    1
     2    10    11   ar
     3    11    12   ar
     4    12    13   ar
     5    13     1    1
     6     1     2    2
     7     1     3   am
     8     3     4    1
     9     4     5    1
    10     5     6    1
    11     6     7    1
    12     7     8    1
    13     8    22    1
    14    22    23    1
    15    23    24   ar
    16    24    25   ar
    17    25    30    1
    18    30    31   ar
    19    31    32   ar
    20    32    33   ar
    21    33    34   ar
    22    25    26   ar
    23    26    27   ar
    24    27    28   ar
    25    28    29    1
    26    13    14   ar
    27    14    17    1
    28    17    18   ar
    29    18    19   ar
    30    19    20   ar
    31    20    21   ar
    32    14    15   ar
    33    15    16    1
    34    15    10   ar
    35     8     3    1
    36    28    23   ar
    37    21    17   ar
    38    34    30   ar
