@<TRIPOS>MOLECULE
*****
 28 31 0 0 0
SMALL
GASTEIGER

@<TRIPOS>ATOM
      1 C          62.6420   89.4952   11.8745 C.ar    1  UNL1        0.0289
      2 C          61.5195   90.0510   11.0491 C.ar    1  UNL1        0.0035
      3 C          60.6544   89.1293   10.2417 C.ar    1  UNL1        0.0144
      4 C          60.9118   87.6516   10.2596 C.ar    1  UNL1        0.0481
      5 N          60.0467   86.7297    9.4522 N.pl3   1  UNL1       -0.3568
      6 C          62.0342   87.0958   11.0849 C.ar    1  UNL1        0.0938
      7 C          62.8993   88.0175   11.8923 C.ar    1  UNL1        0.1456
      8 F          64.0217   87.4617   12.7177 F       1  UNL1       -0.2040
      9 H          59.3100   87.0945    8.9105 H       1  UNL1        0.1424
     10 H          60.2157   85.7599    9.4640 H       1  UNL1        0.1424
     11 C          64.1636   91.6962   10.5179 C.3     1  UNL1        0.0308
     12 C          64.2679   91.5175   12.0035 C.ar    1  UNL1       -0.0215
     13 C          63.5070   90.4170   12.6819 C.ar    1  UNL1        0.0172
     14 C          63.6113   90.2383   14.1675 C.ar    1  UNL1        0.1000
     15 N          64.4764   91.1601   14.9749 N.ar    1  UNL1       -0.2297
     16 C          65.2372   92.2606   14.2966 C.ar    1  UNL1        0.1241
     17 C          65.1330   92.4393   12.8110 C.ar    1  UNL1        0.0063
     18 C          65.9935   93.6049   12.4228 C.3     1  UNL1        0.0393
     19 C          65.6964   93.5370   10.9541 C.3     1  UNL1        0.0062
     20 C          66.6214   94.5922   11.4841 C.3     1  UNL1        0.0062
     21 C          66.6297   94.1466   13.6686 C.3     1  UNL1        0.0922
     22 N          66.1623   93.3158   14.8267 N.pl3   1  UNL1       -0.3181
     23 H          66.4177   93.4411   15.7692 H       1  UNL1        0.1482
     24 C          62.2916   85.6181   11.1029 C.2     1  UNL1        0.2525
     25 O          61.9942   84.8200   12.3377 O.2     1  UNL1       -0.2698
     26 N          62.8464   84.9385    9.8862 N.am    1  UNL1       -0.2725
     27 C          63.1038   83.4609    9.9043 C.3     1  UNL1        0.1152
     28 C          63.1438   85.7366    8.6514 C.3     1  UNL1        0.1152
@<TRIPOS>BOND
     1    11    12    1
     2    12    13   ar
     3    13     1    1
     4     1     2   ar
     5     2     3   ar
     6     3     4   ar
     7     4     5    1
     8     4     6   ar
     9     6    24    1
    10    24    25    2
    11    24    26   am
    12    26    27    1
    13    26    28    1
    14     6     7   ar
    15     7     8    1
    16    13    14   ar
    17    14    15   ar
    18    15    16   ar
    19    16    17   ar
    20    17    18    1
    21    18    19    1
    22    19    20    1
    23    18    21    1
    24    21    22    1
    25    17    12   ar
    26    20    18    1
    27     7     1   ar
    28    22    16    1
    29     5     9    1
    30     5    10    1
    31    22    23    1
@<TRIPOS>MOLECULE
*****
 28 31 0 0 0
SMALL
GASTEIGER

@<TRIPOS>ATOM
      1 C          63.2193   86.9060   12.8028 C.ar    1  UNL1        0.0289
      2 C          62.4487   87.2451   11.5613 C.ar    1  UNL1        0.0035
      3 C          62.3699   88.6678   11.0927 C.ar    1  UNL1        0.0144
      4 C          63.0616   89.7514   11.8654 C.ar    1  UNL1        0.0481
      5 N          62.9828   91.1742   11.3968 N.pl3   1  UNL1       -0.3568
      6 C          63.8322   89.4123   13.1069 C.ar    1  UNL1        0.0938
      7 C          63.9110   87.9896   13.5755 C.ar    1  UNL1        0.1456
      8 F          64.6816   87.6505   14.8170 F       1  UNL1       -0.2040
      9 H          62.4771   91.3968   10.5820 H       1  UNL1        0.1424
     10 H          63.4369   91.8854   11.9041 H       1  UNL1        0.1424
     11 C          62.9980   84.6608   10.8252 C.3     1  UNL1        0.0308
     12 C          63.1874   84.3607   12.2826 C.ar    1  UNL1       -0.0215
     13 C          63.2981   85.4832   13.2714 C.ar    1  UNL1        0.0172
     14 C          63.4876   85.1831   14.7288 C.ar    1  UNL1        0.1000
     15 N          63.5664   83.7603   15.1974 N.ar    1  UNL1       -0.2297
     16 C          63.4558   82.6378   14.2086 C.ar    1  UNL1        0.1241
     17 C          63.2663   82.9380   12.7512 C.ar    1  UNL1        0.0063
     18 C          63.1902   81.6331   12.0153 C.3     1  UNL1        0.0393
     19 C          63.0087   82.2323   10.6522 C.3     1  UNL1        0.0062
     20 C          63.0498   80.7419   10.8170 C.3     1  UNL1        0.0062
     21 C          63.3327   80.5265   13.0179 C.3     1  UNL1        0.0922
     22 N          63.4968   81.1474   14.3734 N.pl3   1  UNL1       -0.3181
     23 H          63.6114   80.6620   15.2222 H       1  UNL1        0.1482
     24 C          64.5240   90.4959   13.8798 C.2     1  UNL1        0.2525
     25 O          65.6032   91.3093   13.2288 O.2     1  UNL1       -0.2698
     26 N          64.1367   90.7661   15.3035 N.am    1  UNL1       -0.2725
     27 C          64.8285   91.8497   16.0762 C.3     1  UNL1        0.1152
     28 C          63.0574   89.9526   15.9544 C.3     1  UNL1        0.1152
@<TRIPOS>BOND
     1    11    12    1
     2    12    13   ar
     3    13     1    1
     4     1     2   ar
     5     2     3   ar
     6     3     4   ar
     7     4     5    1
     8     4     6   ar
     9     6    24    1
    10    24    25    2
    11    24    26   am
    12    26    27    1
    13    26    28    1
    14     6     7   ar
    15     7     8    1
    16    13    14   ar
    17    14    15   ar
    18    15    16   ar
    19    16    17   ar
    20    17    18    1
    21    18    19    1
    22    19    20    1
    23    18    21    1
    24    21    22    1
    25    17    12   ar
    26    20    18    1
    27     7     1   ar
    28    22    16    1
    29     5     9    1
    30     5    10    1
    31    22    23    1
@<TRIPOS>MOLECULE
*****
 28 31 0 0 0
SMALL
GASTEIGER

@<TRIPOS>ATOM
      1 C          62.6192   90.0480   11.1139 C.ar    1  UNL1        0.0289
      2 C          61.3853   90.4989   10.3899 C.ar    1  UNL1        0.0035
      3 C          60.3460   89.4967    9.9830 C.ar    1  UNL1        0.0144
      4 C          60.5406   88.0436   10.3002 C.ar    1  UNL1        0.0481
      5 N          59.5014   87.0413    9.8933 N.pl3   1  UNL1       -0.3568
      6 C          61.7745   87.5927   11.0242 C.ar    1  UNL1        0.0938
      7 C          62.8138   88.5949   11.4310 C.ar    1  UNL1        0.1456
      8 F          64.0477   88.1440   12.1551 F       1  UNL1       -0.2040
      9 H          58.6915   87.3372    9.4181 H       1  UNL1        0.1424
     10 H          59.6292   86.0876   10.1015 H       1  UNL1        0.1424
     11 C          63.4268   90.2865   13.9933 C.3     1  UNL1        0.0308
     12 C          64.0622   91.1694   12.9605 C.ar    1  UNL1       -0.0215
     13 C          63.6584   91.0502   11.5208 C.ar    1  UNL1        0.0172
     14 C          64.2939   91.9331   10.4880 C.ar    1  UNL1        0.1000
     15 N          65.3331   92.9353   10.8949 N.ar    1  UNL1       -0.2297
     16 C          65.7369   93.0545   12.3346 C.ar    1  UNL1        0.1241
     17 C          65.1015   92.1716   13.3674 C.ar    1  UNL1        0.0063
     18 C          65.6975   92.5146   14.7005 C.3     1  UNL1        0.0393
     19 C          64.9027   91.5164   15.4890 C.3     1  UNL1        0.0062
     20 C          65.8914   92.4050   16.1838 C.3     1  UNL1        0.0062
     21 C          66.7013   93.6095   14.4916 C.3     1  UNL1        0.0922
     22 N          66.7257   93.9432   13.0294 N.pl3   1  UNL1       -0.3181
     23 H          67.2913   94.6256   12.6009 H       1  UNL1        0.1482
     24 C          61.9692   86.1396   11.3414 C.2     1  UNL1        0.2525
     25 O          61.6588   85.6237   12.7153 O.2     1  UNL1       -0.2698
     26 N          62.4744   85.2023   10.2848 N.am    1  UNL1       -0.2725
     27 C          62.6691   83.7493   10.6021 C.3     1  UNL1        0.1152
     28 C          62.7848   85.7182    8.9109 C.3     1  UNL1        0.1152
@<TRIPOS>BOND
     1    11    12    1
     2    12    13   ar
     3    13     1    1
     4     1     2   ar
     5     2     3   ar
     6     3     4   ar
     7     4     5    1
     8     4     6   ar
     9     6    24    1
    10    24    25    2
    11    24    26   am
    12    26    27    1
    13    26    28    1
    14     6     7   ar
    15     7     8    1
    16    13    14   ar
    17    14    15   ar
    18    15    16   ar
    19    16    17   ar
    20    17    18    1
    21    18    19    1
    22    19    20    1
    23    18    21    1
    24    21    22    1
    25    17    12   ar
    26    20    18    1
    27     7     1   ar
    28    22    16    1
    29     5     9    1
    30     5    10    1
    31    22    23    1
@<TRIPOS>MOLECULE
*****
 28 31 0 0 0
SMALL
GASTEIGER

@<TRIPOS>ATOM
      1 C          62.6828   86.4107   12.6627 C.ar    1  UNL1        0.0289
      2 C          63.7162   87.3311   13.2414 C.ar    1  UNL1        0.0035
      3 C          63.7702   88.7659   12.8072 C.ar    1  UNL1        0.0144
      4 C          62.7907   89.2802   11.7942 C.ar    1  UNL1        0.0481
      5 N          62.8446   90.7150   11.3599 N.pl3   1  UNL1       -0.3568
      6 C          61.7573   88.3598   11.2155 C.ar    1  UNL1        0.0938
      7 C          61.7034   86.9250   11.6497 C.ar    1  UNL1        0.1456
      8 F          60.6700   86.0046   11.0709 F       1  UNL1       -0.2040
      9 H          63.5228   91.3191   11.7398 H       1  UNL1        0.1424
     10 H          62.2017   91.0525   10.6951 H       1  UNL1        0.1424
     11 C          63.1113   84.2199   10.6584 C.3     1  UNL1        0.0308
     12 C          62.8431   83.8805   12.0947 C.ar    1  UNL1       -0.0215
     13 C          62.6289   84.9759   13.0969 C.ar    1  UNL1        0.0172
     14 C          62.3607   84.6366   14.5332 C.ar    1  UNL1        0.1000
     15 N          62.3068   83.2017   14.9673 N.ar    1  UNL1       -0.2297
     16 C          62.5210   82.1064   13.9652 C.ar    1  UNL1        0.1241
     17 C          62.7892   82.4457   12.5289 C.ar    1  UNL1        0.0063
     18 C          62.9601   81.1613   11.7732 C.3     1  UNL1        0.0393
     19 C          63.2031   81.7970   10.4365 C.3     1  UNL1        0.0062
     20 C          63.2083   80.3028   10.5685 C.3     1  UNL1        0.0062
     21 C          62.7975   80.0281   12.7425 C.3     1  UNL1        0.0922
     22 N          62.5262   80.6122   14.0972 N.pl3   1  UNL1       -0.3181
     23 H          62.3776   80.1041   14.9273 H       1  UNL1        0.1482
     24 C          60.7778   88.8741   10.2024 C.2     1  UNL1        0.2525
     25 O          59.9208   90.0624   10.5240 O.2     1  UNL1       -0.2698
     26 N          60.6553   88.2001    8.8680 N.am    1  UNL1       -0.2725
     27 C          59.6758   88.7144    7.8551 C.3     1  UNL1        0.1152
     28 C          61.5124   87.0117    8.5466 C.3     1  UNL1        0.1152
@<TRIPOS>BOND
     1    11    12    1
     2    12    13   ar
     3    13     1    1
     4     1     2   ar
     5     2     3   ar
     6     3     4   ar
     7     4     5    1
     8     4     6   ar
     9     6    24    1
    10    24    25    2
    11    24    26   am
    12    26    27    1
    13    26    28    1
    14     6     7   ar
    15     7     8    1
    16    13    14   ar
    17    14    15   ar
    18    15    16   ar
    19    16    17   ar
    20    17    18    1
    21    18    19    1
    22    19    20    1
    23    18    21    1
    24    21    22    1
    25    17    12   ar
    26    20    18    1
    27     7     1   ar
    28    22    16    1
    29     5     9    1
    30     5    10    1
    31    22    23    1
@<TRIPOS>MOLECULE
*****
 28 31 0 0 0
SMALL
GASTEIGER

@<TRIPOS>ATOM
      1 C          62.6735   88.8686   12.0772 C.ar    1  UNL1        0.0289
      2 C          61.4897   89.4150   11.3356 C.ar    1  UNL1        0.0035
      3 C          60.6845   88.5178   10.4429 C.ar    1  UNL1        0.0144
      4 C          61.0632   87.0743   10.2919 C.ar    1  UNL1        0.0481
      5 N          60.2581   86.1770    9.3993 N.pl3   1  UNL1       -0.3568
      6 C          62.2470   86.5279   11.0336 C.ar    1  UNL1        0.0938
      7 C          63.0522   87.4251   11.9262 C.ar    1  UNL1        0.1456
      8 F          64.2360   86.8787   12.6679 F       1  UNL1       -0.2040
      9 H          59.4811   86.5356    8.9125 H       1  UNL1        0.1424
     10 H          60.5067   85.2296    9.3002 H       1  UNL1        0.1424
     11 C          64.1121   91.2344   10.9223 C.3     1  UNL1        0.0308
     12 C          64.1979   90.9487   12.3924 C.ar    1  UNL1       -0.0215
     13 C          63.4786   89.7658   12.9699 C.ar    1  UNL1        0.0172
     14 C          63.5645   89.4801   14.4399 C.ar    1  UNL1        0.1000
     15 N          64.3697   90.3773   15.3325 N.ar    1  UNL1       -0.2297
     16 C          65.0889   91.5602   14.7550 C.ar    1  UNL1        0.1241
     17 C          65.0031   91.8459   13.2850 C.ar    1  UNL1        0.0063
     18 C          65.8136   93.0763   13.0038 C.3     1  UNL1        0.0393
     19 C          65.5466   93.1061   11.5281 C.3     1  UNL1        0.0062
     20 C          66.4102   94.1600   12.1554 C.3     1  UNL1        0.0062
     21 C          66.4004   93.5511   14.3001 C.3     1  UNL1        0.0922
     22 N          65.9526   92.6141   15.3824 N.pl3   1  UNL1       -0.3181
     23 H          66.1847   92.6793   16.3370 H       1  UNL1        0.1482
     24 C          62.6258   85.0843   10.8827 C.2     1  UNL1        0.2525
     25 O          63.0477   84.5558    9.5438 O.2     1  UNL1       -0.2698
     26 N          62.5826   84.1694   12.0705 N.am    1  UNL1       -0.2725
     27 C          62.9614   82.7259   11.9195 C.3     1  UNL1        0.1152
     28 C          62.1606   84.6980   13.4094 C.3     1  UNL1        0.1152
@<TRIPOS>BOND
     1    11    12    1
     2    12    13   ar
     3    13     1    1
     4     1     2   ar
     5     2     3   ar
     6     3     4   ar
     7     4     5    1
     8     4     6   ar
     9     6    24    1
    10    24    25    2
    11    24    26   am
    12    26    27    1
    13    26    28    1
    14     6     7   ar
    15     7     8    1
    16    13    14   ar
    17    14    15   ar
    18    15    16   ar
    19    16    17   ar
    20    17    18    1
    21    18    19    1
    22    19    20    1
    23    18    21    1
    24    21    22    1
    25    17    12   ar
    26    20    18    1
    27     7     1   ar
    28    22    16    1
    29     5     9    1
    30     5    10    1
    31    22    23    1
@<TRIPOS>MOLECULE
*****
 28 31 0 0 0
SMALL
GASTEIGER

@<TRIPOS>ATOM
      1 C          63.4826   85.9544   12.6059 C.ar    1  UNL1        0.0289
      2 C          64.1641   86.3158   13.8924 C.ar    1  UNL1        0.0035
      3 C          64.2141   87.7471   14.3383 C.ar    1  UNL1        0.0144
      4 C          63.5826   88.8171   13.4978 C.ar    1  UNL1        0.0481
      5 N          63.6326   90.2484   13.9436 N.pl3   1  UNL1       -0.3568
      6 C          62.9011   88.4557   12.2113 C.ar    1  UNL1        0.0938
      7 C          62.8511   87.0244   11.7654 C.ar    1  UNL1        0.1456
      8 F          62.1696   86.6630   10.4790 F       1  UNL1       -0.2040
      9 H          64.0798   90.4857   14.7880 H       1  UNL1        0.1424
     10 H          63.2181   90.9506   13.3919 H       1  UNL1        0.1424
     11 C          62.1114   83.9000   14.3086 C.3     1  UNL1        0.0308
     12 C          62.7469   83.4959   13.0114 C.ar    1  UNL1       -0.0215
     13 C          63.4326   84.5231   12.1600 C.ar    1  UNL1        0.0172
     14 C          64.0682   84.1191   10.8628 C.ar    1  UNL1        0.1000
     15 N          64.0181   82.6877   10.4169 N.ar    1  UNL1       -0.2297
     16 C          63.3325   81.6605   11.2683 C.ar    1  UNL1        0.1241
     17 C          62.6969   82.0646   12.5655 C.ar    1  UNL1        0.0063
     18 C          62.0966   80.8395   13.1889 C.3     1  UNL1        0.0393
     19 C          61.5632   81.5298   14.4091 C.3     1  UNL1        0.0062
     20 C          61.3557   80.0550   14.2309 C.3     1  UNL1        0.0062
     21 C          62.3612   79.6782   12.2770 C.3     1  UNL1        0.0922
     22 N          63.1250   80.1856   11.0900 N.pl3   1  UNL1       -0.3181
     23 H          63.4356   79.6455   10.3277 H       1  UNL1        0.1482
     24 C          62.2696   89.5256   11.3707 C.2     1  UNL1        0.2525
     25 O          63.1266   90.5666   10.7136 O.2     1  UNL1       -0.2698
     26 N          60.7811   89.5544   11.1872 N.am    1  UNL1       -0.2725
     27 C          60.1497   90.6243   10.3466 C.3     1  UNL1        0.1152
     28 C          59.9242   88.5133   11.8443 C.3     1  UNL1        0.1152
@<TRIPOS>BOND
     1    11    12    1
     2    12    13   ar
     3    13     1    1
     4     1     2   ar
     5     2     3   ar
     6     3     4   ar
     7     4     5    1
     8     4     6   ar
     9     6    24    1
    10    24    25    2
    11    24    26   am
    12    26    27    1
    13    26    28    1
    14     6     7   ar
    15     7     8    1
    16    13    14   ar
    17    14    15   ar
    18    15    16   ar
    19    16    17   ar
    20    17    18    1
    21    18    19    1
    22    19    20    1
    23    18    21    1
    24    21    22    1
    25    17    12   ar
    26    20    18    1
    27     7     1   ar
    28    22    16    1
    29     5     9    1
    30     5    10    1
    31    22    23    1
@<TRIPOS>MOLECULE
*****
 28 31 0 0 0
SMALL
GASTEIGER

@<TRIPOS>ATOM
      1 C          59.0229   94.3871   -1.4268 C.ar    1  UNL1        0.0289
      2 C          58.1982   95.4969   -0.8453 C.ar    1  UNL1        0.0035
      3 C          56.7200   95.5435   -1.0959 C.ar    1  UNL1        0.0144
      4 C          56.0665   94.4803   -1.9280 C.ar    1  UNL1        0.0481
      5 N          54.5883   94.5268   -2.1787 N.pl3   1  UNL1       -0.3568
      6 C          56.8912   93.3705   -2.5096 C.ar    1  UNL1        0.0938
      7 C          58.3694   93.3239   -2.2590 C.ar    1  UNL1        0.1456
      8 F          59.1941   92.2141   -2.8405 F       1  UNL1       -0.2040
      9 H          54.0470   95.2552   -1.7970 H       1  UNL1        0.1424
     10 H          54.1594   93.8289   -2.7249 H       1  UNL1        0.1424
     11 C          60.0980   92.8700    0.9275 C.3     1  UNL1        0.0308
     12 C          61.0386   93.5819    0.0010 C.ar    1  UNL1       -0.0215
     13 C          60.5011   94.3405   -1.1762 C.ar    1  UNL1        0.0172
     14 C          61.4417   95.0524   -2.1028 C.ar    1  UNL1        0.1000
     15 N          62.9199   95.0057   -1.8521 N.ar    1  UNL1       -0.2297
     16 C          63.4574   94.2472   -0.6749 C.ar    1  UNL1        0.1241
     17 C          62.5168   93.5353    0.2516 C.ar    1  UNL1        0.0063
     18 C          63.3329   92.8733    1.3219 C.3     1  UNL1        0.0393
     19 C          62.1709   92.2736    2.0568 C.3     1  UNL1        0.0062
     20 C          63.5684   92.0515    2.5545 C.3     1  UNL1        0.0062
     21 C          64.7780   93.1760    1.0569 C.3     1  UNL1        0.0922
     22 N          64.8549   94.0251   -0.1772 N.pl3   1  UNL1       -0.3181
     23 H          65.6781   94.3752   -0.5884 H       1  UNL1        0.1482
     24 C          56.2378   92.3072   -3.3418 C.2     1  UNL1        0.2525
     25 O          55.7138   91.0616   -2.6907 O.2     1  UNL1       -0.2698
     26 N          56.1083   92.4894   -4.8251 N.am    1  UNL1       -0.2725
     27 C          55.4549   91.4261   -5.6571 C.3     1  UNL1        0.1152
     28 C          56.6323   93.7351   -5.4761 C.3     1  UNL1        0.1152
@<TRIPOS>BOND
     1    11    12    1
     2    12    13   ar
     3    13     1    1
     4     1     2   ar
     5     2     3   ar
     6     3     4   ar
     7     4     5    1
     8     4     6   ar
     9     6    24    1
    10    24    25    2
    11    24    26   am
    12    26    27    1
    13    26    28    1
    14     6     7   ar
    15     7     8    1
    16    13    14   ar
    17    14    15   ar
    18    15    16   ar
    19    16    17   ar
    20    17    18    1
    21    18    19    1
    22    19    20    1
    23    18    21    1
    24    21    22    1
    25    17    12   ar
    26    20    18    1
    27     7     1   ar
    28    22    16    1
    29     5     9    1
    30     5    10    1
    31    22    23    1
@<TRIPOS>MOLECULE
*****
 28 31 0 0 0
SMALL
GASTEIGER

@<TRIPOS>ATOM
      1 C          59.6239   94.3723   -2.3392 C.ar    1  UNL1        0.0289
      2 C          59.8406   93.9715   -3.7684 C.ar    1  UNL1        0.0035
      3 C          58.6651   93.6570   -4.6456 C.ar    1  UNL1        0.0144
      4 C          57.2731   93.7434   -4.0936 C.ar    1  UNL1        0.0481
      5 N          56.0975   93.4290   -4.9708 N.pl3   1  UNL1       -0.3568
      6 C          57.0564   94.1442   -2.6645 C.ar    1  UNL1        0.0938
      7 C          58.2319   94.4587   -1.7873 C.ar    1  UNL1        0.1456
      8 F          58.0152   94.8595   -0.3582 F       1  UNL1       -0.2040
      9 H          56.2397   93.1659   -5.9088 H       1  UNL1        0.1424
     10 H          55.1839   93.4857   -4.6085 H       1  UNL1        0.1424
     11 C          60.5181   92.3981   -0.2648 C.3     1  UNL1        0.0308
     12 C          61.2464   93.6996   -0.4248 C.ar    1  UNL1       -0.0215
     13 C          60.7994   94.6867   -1.4620 C.ar    1  UNL1        0.0172
     14 C          61.5277   95.9882   -1.6220 C.ar    1  UNL1        0.1000
     15 N          62.7032   96.3026   -0.7448 N.ar    1  UNL1       -0.2297
     16 C          63.1502   95.3155    0.2924 C.ar    1  UNL1        0.1241
     17 C          62.4219   94.0140    0.4524 C.ar    1  UNL1        0.0063
     18 C          63.0877   93.2425    1.5530 C.3     1  UNL1        0.0393
     19 C          62.1805   92.0502    1.4797 C.3     1  UNL1        0.0062
     20 C          63.2965   92.0830    2.4814 C.3     1  UNL1        0.0062
     21 C          64.2276   94.0671    2.0732 C.3     1  UNL1        0.0922
     22 N          64.2662   95.3484    1.2942 N.pl3   1  UNL1       -0.3181
     23 H          64.9108   96.0820    1.4185 H       1  UNL1        0.1482
     24 C          55.6643   94.2306   -2.1125 C.2     1  UNL1        0.2525
     25 O          54.9988   93.0046   -1.5612 O.2     1  UNL1       -0.2698
     26 N          54.9378   95.5430   -2.1118 N.am    1  UNL1       -0.2725
     27 C          53.5458   95.6293   -1.5597 C.3     1  UNL1        0.1152
     28 C          55.6034   96.7690   -2.6631 C.3     1  UNL1        0.1152
@<TRIPOS>BOND
     1    11    12    1
     2    12    13   ar
     3    13     1    1
     4     1     2   ar
     5     2     3   ar
     6     3     4   ar
     7     4     5    1
     8     4     6   ar
     9     6    24    1
    10    24    25    2
    11    24    26   am
    12    26    27    1
    13    26    28    1
    14     6     7   ar
    15     7     8    1
    16    13    14   ar
    17    14    15   ar
    18    15    16   ar
    19    16    17   ar
    20    17    18    1
    21    18    19    1
    22    19    20    1
    23    18    21    1
    24    21    22    1
    25    17    12   ar
    26    20    18    1
    27     7     1   ar
    28    22    16    1
    29     5     9    1
    30     5    10    1
    31    22    23    1
@<TRIPOS>MOLECULE
*****
 28 31 0 0 0
SMALL
GASTEIGER

@<TRIPOS>ATOM
      1 C          62.7363   84.6609   10.3635 C.ar    1  UNL1        0.0289
      2 C          63.7578   83.8407    9.6329 C.ar    1  UNL1        0.0035
      3 C          64.5797   82.8302   10.3767 C.ar    1  UNL1        0.0144
      4 C          64.3802   82.6398   11.8511 C.ar    1  UNL1        0.0481
      5 N          65.2021   81.6293   12.5951 N.pl3   1  UNL1       -0.3568
      6 C          63.3586   83.4600   12.5817 C.ar    1  UNL1        0.0938
      7 C          62.5367   84.4705   11.8379 C.ar    1  UNL1        0.1456
      8 F          61.5152   85.2907   12.5685 F       1  UNL1       -0.2040
      9 H          65.8726   81.0910   12.1156 H       1  UNL1        0.1424
     10 H          65.0710   81.5045   13.5628 H       1  UNL1        0.1424
     11 C          62.5101   87.4668   11.4006 C.3     1  UNL1        0.0308
     12 C          61.8012   87.0744   10.1383 C.ar    1  UNL1       -0.0215
     13 C          61.9143   85.6714    9.6196 C.ar    1  UNL1        0.0172
     14 C          61.2055   85.2789    8.3573 C.ar    1  UNL1        0.1000
     15 N          60.3836   86.2895    7.6135 N.ar    1  UNL1       -0.2297
     16 C          60.2705   87.6924    8.1321 C.ar    1  UNL1        0.1241
     17 C          60.9793   88.0849    9.3945 C.ar    1  UNL1        0.0063
     18 C          60.6849   89.5314    9.6609 C.3     1  UNL1        0.0393
     19 C          61.4905   89.6255   10.9226 C.3     1  UNL1        0.0062
     20 C          60.7580   90.8295   10.4089 C.3     1  UNL1        0.0062
     21 C          59.7941   90.0329    8.5631 C.3     1  UNL1        0.0922
     22 N          59.5380   88.8964    7.6183 N.pl3   1  UNL1       -0.3181
     23 H          58.9860   88.9341    6.8039 H       1  UNL1        0.1482
     24 C          63.1590   83.2698   14.0562 C.2     1  UNL1        0.2525
     25 O          62.5824   81.9860   14.5754 O.2     1  UNL1       -0.2698
     26 N          63.5358   84.3632   15.0114 N.am    1  UNL1       -0.2725
     27 C          63.3361   84.1729   16.4858 C.3     1  UNL1        0.1152
     28 C          64.1123   85.6470   14.4921 C.3     1  UNL1        0.1152
@<TRIPOS>BOND
     1    11    12    1
     2    12    13   ar
     3    13     1    1
     4     1     2   ar
     5     2     3   ar
     6     3     4   ar
     7     4     5    1
     8     4     6   ar
     9     6    24    1
    10    24    25    2
    11    24    26   am
    12    26    27    1
    13    26    28    1
    14     6     7   ar
    15     7     8    1
    16    13    14   ar
    17    14    15   ar
    18    15    16   ar
    19    16    17   ar
    20    17    18    1
    21    18    19    1
    22    19    20    1
    23    18    21    1
    24    21    22    1
    25    17    12   ar
    26    20    18    1
    27     7     1   ar
    28    22    16    1
    29     5     9    1
    30     5    10    1
    31    22    23    1
