@<TRIPOS>MOLECULE
*****
 35 37 0 0 0
SMALL
GASTEIGER

@<TRIPOS>ATOM
      1 C          62.2189   88.0441   11.4015 C.ar    1  UNL1        0.1480
      2 C          63.2409   87.6303   12.4185 C.ar    1  UNL1        0.0844
      3 C          63.3546   86.1909   12.8248 C.ar    1  UNL1        0.0143
      4 C          62.4463   85.1652   12.2141 C.ar    1  UNL1       -0.0086
      5 C          61.4244   85.5790   11.1971 C.ar    1  UNL1       -0.0047
      6 C          61.3107   87.0184   10.7908 C.ar    1  UNL1        0.0121
      7 C          62.5600   83.7258   12.6204 C.3     1  UNL1        0.1227
      8 C          62.8684   82.6783   11.5920 C.2     1  UNL1       -0.0115
      9 C          62.9821   81.2389   11.9983 C.2     1  UNL1        0.0141
     10 C          62.7874   80.8469   13.4330 C.2     1  UNL1        0.0883
     11 N          62.4789   81.8943   14.4614 N.am    1  UNL1       -0.1774
     12 C          62.3652   83.3338   14.0551 C.2     1  UNL1        0.2533
     13 O          62.0568   84.3813   15.0836 O.2     1  UNL1       -0.2723
     14 N          64.1492   88.6560   13.0293 N.am    1  UNL1       -0.2780
     15 C          63.5946   89.6831   13.9713 C.2     1  UNL1        0.2496
     16 O          62.1316   89.6845   14.3027 O.2     1  UNL1       -0.2698
     17 H          65.1094   88.6551   12.8118 H       1  UNL1        0.1553
     18 C          64.5029   90.7087   14.5821 C.ar    1  UNL1        0.0538
     19 C          64.2131   91.2464   15.9521 C.ar    1  UNL1        0.0058
     20 C          65.1214   92.2720   16.5628 C.ar    1  UNL1        0.0160
     21 C          66.3195   92.7600   15.8036 C.ar    1  UNL1        0.0644
     22 C          66.6093   92.2224   14.4336 C.ar    1  UNL1        0.0160
     23 C          65.7009   91.1967   13.8228 C.ar    1  UNL1        0.0058
     24 N          67.2278   93.7857   16.4143 N.pl3   1  UNL1       -0.2187
     25 H          66.8567   94.4878   16.9962 H       1  UNL1        0.1734
     26 S          68.7016   93.7416   16.1386 S.O2    1  UNL1        0.0558
     27 C          70.1753   93.6976   15.8629 C.3     1  UNL1        0.1996
     28 O          68.6873   92.2505   16.3004 O.2     1  UNL1       -0.1544
     29 O          68.7159   95.2328   15.9768 O.2     1  UNL1       -0.1544
     30 C          60.2887   87.4322    9.7737 C.3     1  UNL1        0.0218
     31 C          59.5508   88.2022   10.8284 C.3     1  UNL1        0.0045
     32 C          61.0265   86.6621    8.7189 C.3     1  UNL1        0.0045
     33 C          59.2667   87.8459    8.7567 C.3     1  UNL1        0.0045
     34 C          63.0778   90.0644   10.0119 C.3     1  UNL1        0.2525
     35 O          62.1053   89.4835   10.9952 O.3     1  UNL1       -0.4705
@<TRIPOS>BOND
     1    34    35    1
     2    35     1    1
     3     1     2   ar
     4     2    14    1
     5    14    15   am
     6    15    16    2
     7    15    18    1
     8    18    19   ar
     9    19    20   ar
    10    20    21   ar
    11    21    24    1
    12    24    26    1
    13    26    27    1
    14    26    28    2
    15    26    29    2
    16    21    22   ar
    17    22    23   ar
    18     2     3   ar
    19     3     4   ar
    20     4     7    1
    21     7     8    1
    22     8     9    2
    23     9    10    1
    24    10    11    2
    25    11    12    1
    26    12    13    2
    27     4     5   ar
    28     5     6   ar
    29     6    30    1
    30    30    31    1
    31    30    32    1
    32    30    33    1
    33     6     1   ar
    34    23    18   ar
    35    12     7    1
    36    14    17    1
    37    24    25    1
@<TRIPOS>MOLECULE
*****
 35 37 0 0 0
SMALL
GASTEIGER

@<TRIPOS>ATOM
      1 C          63.5629   85.4017   13.3879 C.ar    1  UNL1        0.1480
      2 C          63.4772   86.8128   12.8866 C.ar    1  UNL1        0.0844
      3 C          62.6046   87.1395   11.7110 C.ar    1  UNL1        0.0143
      4 C          61.8177   86.0550   11.0368 C.ar    1  UNL1       -0.0086
      5 C          61.9033   84.6439   11.5381 C.ar    1  UNL1       -0.0047
      6 C          62.7759   84.3173   12.7136 C.ar    1  UNL1        0.0121
      7 C          60.9451   86.3817    9.8613 C.3     1  UNL1        0.1227
      8 C          61.0918   85.6128    8.5817 C.2     1  UNL1       -0.0115
      9 C          60.2192   85.9395    7.4062 C.2     1  UNL1        0.0141
     10 C          59.1999   87.0350    7.5102 C.2     1  UNL1        0.0883
     11 N          59.0532   87.8038    8.7897 N.am    1  UNL1       -0.1774
     12 C          59.9258   87.4772    9.9653 C.2     1  UNL1        0.2533
     13 O          59.7791   88.2461   11.2449 O.2     1  UNL1       -0.2723
     14 N          64.2642   87.8974   13.5608 N.am    1  UNL1       -0.2780
     15 C          63.7674   89.3124   13.5330 C.2     1  UNL1        0.2496
     16 O          62.4837   89.6430   12.8310 O.2     1  UNL1       -0.2698
     17 H          65.1067   87.6804   14.0215 H       1  UNL1        0.1553
     18 C          64.5544   90.3970   14.2072 C.ar    1  UNL1        0.0538
     19 C          64.1892   90.8373   15.5938 C.ar    1  UNL1        0.0058
     20 C          64.9761   91.9218   16.2680 C.ar    1  UNL1        0.0160
     21 C          66.1282   92.5660   15.5555 C.ar    1  UNL1        0.0644
     22 C          66.4935   92.1257   14.1690 C.ar    1  UNL1        0.0160
     23 C          65.7065   91.0412   13.4948 C.ar    1  UNL1        0.0058
     24 N          66.9152   93.6506   16.2298 N.pl3   1  UNL1       -0.2187
     25 H          66.4483   94.3668   16.7179 H       1  UNL1        0.1734
     26 S          68.4135   93.6439   16.1603 S.O2    1  UNL1        0.0558
     27 C          69.9119   93.6372   16.0908 C.3     1  UNL1        0.1996
     28 O          68.4024   95.0950   15.7809 O.2     1  UNL1       -0.1544
     29 O          68.4247   92.1927   16.5397 O.2     1  UNL1       -0.1544
     30 C          62.8616   82.9061   13.2150 C.3     1  UNL1        0.0218
     31 C          63.8234   82.5731   12.1132 C.3     1  UNL1        0.0045
     32 C          61.8997   83.2390   14.3167 C.3     1  UNL1        0.0045
     33 C          62.9472   81.4949   13.7162 C.3     1  UNL1        0.0045
     34 C          64.0401   85.5246   15.9387 C.3     1  UNL1        0.2525
     35 O          64.4354   85.0751   14.5634 O.3     1  UNL1       -0.4705
@<TRIPOS>BOND
     1    34    35    1
     2    35     1    1
     3     1     2   ar
     4     2    14    1
     5    14    15   am
     6    15    16    2
     7    15    18    1
     8    18    19   ar
     9    19    20   ar
    10    20    21   ar
    11    21    24    1
    12    24    26    1
    13    26    27    1
    14    26    28    2
    15    26    29    2
    16    21    22   ar
    17    22    23   ar
    18     2     3   ar
    19     3     4   ar
    20     4     7    1
    21     7     8    1
    22     8     9    2
    23     9    10    1
    24    10    11    2
    25    11    12    1
    26    12    13    2
    27     4     5   ar
    28     5     6   ar
    29     6    30    1
    30    30    31    1
    31    30    32    1
    32    30    33    1
    33     6     1   ar
    34    23    18   ar
    35    12     7    1
    36    14    17    1
    37    24    25    1
@<TRIPOS>MOLECULE
*****
 35 37 0 0 0
SMALL
GASTEIGER

@<TRIPOS>ATOM
      1 C          58.9549   94.0829   -0.5128 C.ar    1  UNL1        0.1480
      2 C          60.0297   93.6118    0.4213 C.ar    1  UNL1        0.0844
      3 C          61.4237   94.1506    0.2934 C.ar    1  UNL1        0.0143
      4 C          61.7429   95.1606   -0.7687 C.ar    1  UNL1       -0.0086
      5 C          60.6681   95.6317   -1.7028 C.ar    1  UNL1       -0.0047
      6 C          59.2740   95.0929   -1.5749 C.ar    1  UNL1        0.0121
      7 C          63.1369   95.6994   -0.8966 C.3     1  UNL1        0.1227
      8 C          63.8526   95.6234   -2.2126 C.2     1  UNL1       -0.0115
      9 C          65.2466   96.1622   -2.3405 C.2     1  UNL1        0.0141
     10 C          65.9250   96.7771   -1.1524 C.2     1  UNL1        0.0883
     11 N          65.2093   96.8532    0.1636 N.am    1  UNL1       -0.1774
     12 C          63.8153   96.3143    0.2915 C.2     1  UNL1        0.2533
     13 O          63.0996   96.3904    1.6077 O.2     1  UNL1       -0.2723
     14 N          59.7106   92.6017    1.4835 N.am    1  UNL1       -0.2780
     15 C          59.7241   93.0033    2.9286 C.2     1  UNL1        0.2496
     16 O          60.0568   94.4149    3.3117 O.2     1  UNL1       -0.2698
     17 H          59.4922   91.6753    1.2320 H       1  UNL1        0.1553
     18 C          59.4050   91.9933    3.9908 C.ar    1  UNL1        0.0538
     19 C          57.9887   91.8090    4.4492 C.ar    1  UNL1        0.0058
     20 C          57.6697   90.7990    5.5113 C.ar    1  UNL1        0.0160
     21 C          58.7669   89.9733    6.1149 C.ar    1  UNL1        0.0644
     22 C          60.1831   90.1576    5.6565 C.ar    1  UNL1        0.0160
     23 C          60.5022   91.1676    4.5944 C.ar    1  UNL1        0.0058
     24 N          58.4477   88.9632    7.1771 N.pl3   1  UNL1       -0.2187
     25 H          57.5102   88.7735    7.4102 H       1  UNL1        0.1734
     26 S          59.5570   88.2423    7.8840 S.O2    1  UNL1        0.0558
     27 C          60.6662   87.5213    8.5909 C.3     1  UNL1        0.1996
     28 O          59.2629   87.0070    7.0855 O.2     1  UNL1       -0.1544
     29 O          59.8510   89.4776    8.6824 O.2     1  UNL1       -0.1544
     30 C          58.1992   95.5641   -2.5091 C.3     1  UNL1        0.0218
     31 C          58.7271   94.6520   -3.5765 C.3     1  UNL1        0.0045
     32 C          57.6712   96.4762   -1.4417 C.3     1  UNL1        0.0045
     33 C          57.1243   96.0352   -3.4433 C.3     1  UNL1        0.0045
     34 C          57.1385   92.3560   -1.1974 C.3     1  UNL1        0.2525
     35 O          57.5609   93.5441   -0.3849 O.3     1  UNL1       -0.4705
@<TRIPOS>BOND
     1    34    35    1
     2    35     1    1
     3     1     2   ar
     4     2    14    1
     5    14    15   am
     6    15    16    2
     7    15    18    1
     8    18    19   ar
     9    19    20   ar
    10    20    21   ar
    11    21    24    1
    12    24    26    1
    13    26    27    1
    14    26    28    2
    15    26    29    2
    16    21    22   ar
    17    22    23   ar
    18     2     3   ar
    19     3     4   ar
    20     4     7    1
    21     7     8    1
    22     8     9    2
    23     9    10    1
    24    10    11    2
    25    11    12    1
    26    12    13    2
    27     4     5   ar
    28     5     6   ar
    29     6    30    1
    30    30    31    1
    31    30    32    1
    32    30    33    1
    33     6     1   ar
    34    23    18   ar
    35    12     7    1
    36    14    17    1
    37    24    25    1
@<TRIPOS>MOLECULE
*****
 35 37 0 0 0
SMALL
GASTEIGER

@<TRIPOS>ATOM
      1 C          63.2736   86.8439   13.0834 C.ar    1  UNL1        0.1480
      2 C          63.2240   88.1846   12.4125 C.ar    1  UNL1        0.0844
      3 C          63.8609   89.3747   13.0668 C.ar    1  UNL1        0.0143
      4 C          64.5474   89.2241   14.3919 C.ar    1  UNL1       -0.0086
      5 C          64.5970   87.8835   15.0628 C.ar    1  UNL1       -0.0047
      6 C          63.9601   86.6934   14.4085 C.ar    1  UNL1        0.0121
      7 C          65.1843   90.4142   15.0462 C.3     1  UNL1        0.1227
      8 C          66.5636   90.8435   14.6421 C.2     1  UNL1       -0.0115
      9 C          67.2005   92.0336   15.2964 C.2     1  UNL1        0.0141
     10 C          66.4581   92.7944   16.3547 C.2     1  UNL1        0.0883
     11 N          65.0788   92.3651   16.7587 N.am    1  UNL1       -0.1774
     12 C          64.4420   91.1750   16.1045 C.2     1  UNL1        0.2533
     13 O          63.0626   90.7457   16.5086 O.2     1  UNL1       -0.2723
     14 N          62.5375   88.3352   11.0873 N.am    1  UNL1       -0.2780
     15 C          61.0858   88.7086   11.0329 C.2     1  UNL1        0.2496
     16 O          60.3205   88.9314   12.3036 O.2     1  UNL1       -0.2698
     17 H          63.0398   88.1890   10.2533 H       1  UNL1        0.1553
     18 C          60.3992   88.8593    9.7077 C.ar    1  UNL1        0.0538
     19 C          60.3526   90.1992    9.0352 C.ar    1  UNL1        0.0058
     20 C          59.6661   90.3498    7.7101 C.ar    1  UNL1        0.0160
     21 C          59.0262   89.1604    7.0575 C.ar    1  UNL1        0.0644
     22 C          59.0729   87.8205    7.7299 C.ar    1  UNL1        0.0160
     23 C          59.7594   87.6699    9.0550 C.ar    1  UNL1        0.0058
     24 N          58.3397   89.3111    5.7323 N.pl3   1  UNL1       -0.2187
     25 H          58.0810   88.5122    5.2183 H       1  UNL1        0.1734
     26 S          58.0474   90.6788    5.1902 S.O2    1  UNL1        0.0558
     27 C          57.7550   92.0465    4.6482 C.3     1  UNL1        0.1996
     28 O          56.5996   90.5096    5.5442 O.2     1  UNL1       -0.1544
     29 O          59.4951   90.8479    4.8362 O.2     1  UNL1       -0.1544
     30 C          64.0098   85.3526   15.0794 C.3     1  UNL1        0.0218
     31 C          62.8105   85.7200   15.9021 C.3     1  UNL1        0.0045
     32 C          65.2091   84.9853   14.2568 C.3     1  UNL1        0.0045
     33 C          64.0594   84.0120   15.7504 C.3     1  UNL1        0.0045
     34 C          63.3182   84.9773   11.2768 C.3     1  UNL1        0.2525
     35 O          62.6367   85.6539   12.4291 O.3     1  UNL1       -0.4705
@<TRIPOS>BOND
     1    34    35    1
     2    35     1    1
     3     1     2   ar
     4     2    14    1
     5    14    15   am
     6    15    16    2
     7    15    18    1
     8    18    19   ar
     9    19    20   ar
    10    20    21   ar
    11    21    24    1
    12    24    26    1
    13    26    27    1
    14    26    28    2
    15    26    29    2
    16    21    22   ar
    17    22    23   ar
    18     2     3   ar
    19     3     4   ar
    20     4     7    1
    21     7     8    1
    22     8     9    2
    23     9    10    1
    24    10    11    2
    25    11    12    1
    26    12    13    2
    27     4     5   ar
    28     5     6   ar
    29     6    30    1
    30    30    31    1
    31    30    32    1
    32    30    33    1
    33     6     1   ar
    34    23    18   ar
    35    12     7    1
    36    14    17    1
    37    24    25    1
@<TRIPOS>MOLECULE
*****
 35 37 0 0 0
SMALL
GASTEIGER

@<TRIPOS>ATOM
      1 C          63.8909   90.3309   13.1929 C.ar    1  UNL1        0.1480
      2 C          63.2448   89.2035   12.4437 C.ar    1  UNL1        0.0844
      3 C          63.3386   87.8020   12.9700 C.ar    1  UNL1        0.0143
      4 C          64.0787   87.5279   14.2456 C.ar    1  UNL1       -0.0086
      5 C          64.7248   88.6553   14.9948 C.ar    1  UNL1       -0.0047
      6 C          64.6309   90.0568   14.4685 C.ar    1  UNL1        0.0121
      7 C          64.1725   86.1264   14.7719 C.3     1  UNL1        0.1227
      8 C          64.9500   85.0913   14.0143 C.2     1  UNL1       -0.0115
      9 C          65.0439   83.6898   14.5406 C.2     1  UNL1        0.0141
     10 C          64.3603   83.3234   15.8245 C.2     1  UNL1        0.0883
     11 N          63.5828   84.3585   16.5820 N.am    1  UNL1       -0.1774
     12 C          63.4889   85.7600   16.0557 C.2     1  UNL1        0.2533
     13 O          62.7114   86.7952   16.8134 O.2     1  UNL1       -0.2723
     14 N          62.5047   89.4776   11.1680 N.am    1  UNL1       -0.2780
     15 C          61.4207   88.5452   10.7146 C.2     1  UNL1        0.2496
     16 O          61.0767   87.3388   11.5369 O.2     1  UNL1       -0.2698
     17 H          62.7305   90.2695   10.6283 H       1  UNL1        0.1553
     18 C          60.6806   88.8193    9.4390 C.ar    1  UNL1        0.0538
     19 C          60.5527   90.2257    8.9334 C.ar    1  UNL1        0.0058
     20 C          59.8127   90.4998    7.6578 C.ar    1  UNL1        0.0160
     21 C          59.2005   89.3674    6.8878 C.ar    1  UNL1        0.0644
     22 C          59.3284   87.9610    7.3933 C.ar    1  UNL1        0.0160
     23 C          60.0685   87.6870    8.6689 C.ar    1  UNL1        0.0058
     24 N          58.4605   89.6415    5.6121 N.pl3   1  UNL1       -0.2187
     25 H          57.9571   88.9199    5.1702 H       1  UNL1        0.1734
     26 S          58.4873   91.0149    5.0097 S.O2    1  UNL1        0.0558
     27 C          58.5141   92.3883    4.4073 C.3     1  UNL1        0.1996
     28 O          59.9664   90.8912    4.7935 O.2     1  UNL1       -0.1544
     29 O          57.0082   91.1386    5.2259 O.2     1  UNL1       -0.1544
     30 C          65.2771   91.1842   15.2179 C.3     1  UNL1        0.0218
     31 C          66.4994   91.0550   14.3581 C.3     1  UNL1        0.0045
     32 C          64.0548   91.3134   16.0777 C.3     1  UNL1        0.0045
     33 C          65.9233   92.3115   15.9672 C.3     1  UNL1        0.0045
     34 C          64.7517   92.2020   11.6093 C.3     1  UNL1        0.2525
     35 O          63.7970   91.7324   12.6666 O.3     1  UNL1       -0.4705
@<TRIPOS>BOND
     1    34    35    1
     2    35     1    1
     3     1     2   ar
     4     2    14    1
     5    14    15   am
     6    15    16    2
     7    15    18    1
     8    18    19   ar
     9    19    20   ar
    10    20    21   ar
    11    21    24    1
    12    24    26    1
    13    26    27    1
    14    26    28    2
    15    26    29    2
    16    21    22   ar
    17    22    23   ar
    18     2     3   ar
    19     3     4   ar
    20     4     7    1
    21     7     8    1
    22     8     9    2
    23     9    10    1
    24    10    11    2
    25    11    12    1
    26    12    13    2
    27     4     5   ar
    28     5     6   ar
    29     6    30    1
    30    30    31    1
    31    30    32    1
    32    30    33    1
    33     6     1   ar
    34    23    18   ar
    35    12     7    1
    36    14    17    1
    37    24    25    1
@<TRIPOS>MOLECULE
*****
 35 37 0 0 0
SMALL
GASTEIGER

@<TRIPOS>ATOM
      1 C          62.0930   94.4956   -4.5853 C.ar    1  UNL1        0.1480
      2 C          61.0075   94.7090   -3.5723 C.ar    1  UNL1        0.0844
      3 C          61.2466   94.3626   -2.1326 C.ar    1  UNL1        0.0143
      4 C          62.5712   93.8029   -1.7058 C.ar    1  UNL1       -0.0086
      5 C          63.6567   93.5896   -2.7188 C.ar    1  UNL1       -0.0047
      6 C          63.4176   93.9360   -4.1585 C.ar    1  UNL1        0.0121
      7 C          62.8102   93.4565   -0.2661 C.3     1  UNL1        0.1227
      8 C          63.9939   94.0283    0.4563 C.2     1  UNL1       -0.0115
      9 C          64.2330   93.6819    1.8961 C.2     1  UNL1        0.0141
     10 C          63.2884   92.7638    2.6134 C.2     1  UNL1        0.0883
     11 N          62.1047   92.1920    1.8911 N.am    1  UNL1       -0.1774
     12 C          61.8656   92.5384    0.4513 C.2     1  UNL1        0.2533
     13 O          60.6818   91.9666   -0.2711 O.2     1  UNL1       -0.2723
     14 N          59.6828   95.2687   -3.9991 N.am    1  UNL1       -0.2780
     15 C          58.4352   94.4529   -3.8324 C.2     1  UNL1        0.2496
     16 O          58.5121   93.0775   -3.2389 O.2     1  UNL1       -0.2698
     17 H          59.6323   96.1714   -4.3886 H       1  UNL1        0.1553
     18 C          57.1105   95.0126   -4.2592 C.ar    1  UNL1        0.0538
     19 C          56.6109   96.2950   -3.6627 C.ar    1  UNL1        0.0058
     20 C          55.2863   96.8547   -4.0895 C.ar    1  UNL1        0.0160
     21 C          54.4613   96.1319   -5.1127 C.ar    1  UNL1        0.0644
     22 C          54.9609   94.8495   -5.7092 C.ar    1  UNL1        0.0160
     23 C          56.2855   94.2899   -5.2824 C.ar    1  UNL1        0.0058
     24 N          53.1366   96.6916   -5.5395 N.pl3   1  UNL1       -0.2187
     25 H          53.0891   97.3246   -6.2920 H       1  UNL1        0.1734
     26 S          51.8844   96.2869   -4.8197 S.O2    1  UNL1        0.0558
     27 C          50.6322   95.8821   -4.0999 C.3     1  UNL1        0.1996
     28 O          52.5955   96.4231   -3.5060 O.2     1  UNL1       -0.1544
     29 O          51.1734   96.1506   -6.1334 O.2     1  UNL1       -0.1544
     30 C          64.5032   93.7226   -5.1715 C.3     1  UNL1        0.0218
     31 C          63.9878   92.3384   -5.4323 C.3     1  UNL1        0.0045
     32 C          65.0186   95.1069   -4.9107 C.3     1  UNL1        0.0045
     33 C          65.5887   93.5093   -6.1844 C.3     1  UNL1        0.0045
     34 C          61.9395   96.2697   -6.4772 C.3     1  UNL1        0.2525
     35 O          61.8539   94.8420   -6.0250 O.3     1  UNL1       -0.4705
@<TRIPOS>BOND
     1    34    35    1
     2    35     1    1
     3     1     2   ar
     4     2    14    1
     5    14    15   am
     6    15    16    2
     7    15    18    1
     8    18    19   ar
     9    19    20   ar
    10    20    21   ar
    11    21    24    1
    12    24    26    1
    13    26    27    1
    14    26    28    2
    15    26    29    2
    16    21    22   ar
    17    22    23   ar
    18     2     3   ar
    19     3     4   ar
    20     4     7    1
    21     7     8    1
    22     8     9    2
    23     9    10    1
    24    10    11    2
    25    11    12    1
    26    12    13    2
    27     4     5   ar
    28     5     6   ar
    29     6    30    1
    30    30    31    1
    31    30    32    1
    32    30    33    1
    33     6     1   ar
    34    23    18   ar
    35    12     7    1
    36    14    17    1
    37    24    25    1
