@<TRIPOS>MOLECULE
*****
 50 56 0 0 0
SMALL
GASTEIGER

@<TRIPOS>ATOM
      1 C          59.9969   89.9380    6.8657 C.ar    1  UNL1        0.0481
      2 C          60.7708   90.4894    8.0263 C.ar    1  UNL1        0.0176
      3 C          60.8444   89.7201    9.3120 C.ar    1  UNL1        0.0382
      4 C          60.1442   88.3995    9.4369 C.ar    1  UNL1        0.1388
      5 C          59.3703   87.8482    8.2762 C.ar    1  UNL1        0.0382
      6 C          59.2967   88.6174    6.9906 C.ar    1  UNL1        0.0176
      7 N          59.7762   92.2458    3.0088 N.pl3   1  UNL1       -0.3023
      8 C          58.5366   92.0292    3.8252 C.3     1  UNL1        0.1123
      9 C          58.6102   91.2599    5.1108 C.3     1  UNL1        0.1122
     10 N          59.9233   90.7073    5.5801 N.pl3   1  UNL1       -0.3041
     11 C          61.1630   90.9239    4.7636 C.3     1  UNL1        0.1122
     12 C          61.0894   91.6932    3.4780 C.3     1  UNL1        0.1123
     13 C          59.5555   94.5535   -0.8481 C.ar    1  UNL1        0.0721
     14 C          59.3832   93.0635   -0.8547 C.ar    1  UNL1        0.0191
     15 C          59.4568   92.2943    0.4309 C.ar    1  UNL1        0.0183
     16 C          59.7027   93.0151    1.7231 C.ar    1  UNL1        0.0759
     17 C          59.8750   94.5051    1.7298 C.ar    1  UNL1        0.1548
     18 F          60.1209   95.2260    3.0221 F       1  UNL1       -0.2028
     19 C          59.8014   95.2744    0.4442 C.ar    1  UNL1        0.0486
     20 N          59.9924   96.1657   -4.3518 N.ar    1  UNL1       -0.2024
     21 N          58.7452   96.8475   -3.8724 N.ar    1  UNL1       -0.1442
     22 C          58.4298   96.3266   -2.5016 C.ar    1  UNL1        0.2073
     23 N          59.4820   95.3228   -2.1338 N.ar    1  UNL1       -0.2397
     24 C          60.4477   95.2234   -3.2772 C.ar    1  UNL1        0.3522
     25 O          61.6566   94.3373   -3.3358 O.2     1  UNL1       -0.2444
     26 C          60.6659   96.3873   -5.6736 C.3     1  UNL1        0.1099
     27 C          62.1294   96.7124   -5.7245 C.3     1  UNL1        0.0265
     28 C          59.0321   95.0719   -7.2066 C.3     1  UNL1        0.0021
     29 C          59.8760   96.2839   -6.9446 C.3     1  UNL1        0.0245
     30 O          60.2178   87.6303   10.7225 O.3     1  UNL1       -0.4727
     31 C          61.5493   87.2059   11.2674 C.3     1  UNL1        0.2374
     32 C          62.3967   88.1854   12.0241 C.3     1  UNL1        0.1909
     33 C          62.4146   89.6723   11.8271 C.3     1  UNL1        0.1783
     34 O          63.4039   90.2559   12.7918 O.3     1  UNL1       -0.3266
     35 C          63.9975   89.1296   13.5851 C.3     1  UNL1        0.2315
     36 O          63.3750   87.8500   13.1106 O.3     1  UNL1       -0.3254
     37 C          64.7781   90.2214   14.2547 C.ar    1  UNL1        0.0410
     38 C          66.0341   90.7422   13.6212 C.ar    1  UNL1        0.0022
     39 C          66.8149   91.8341   14.2908 C.ar    1  UNL1        0.0113
     40 C          66.3396   92.4052   15.5937 C.ar    1  UNL1        0.0585
     41 CL         67.1203   93.4970   16.2633 Cl      1  UNL1       -0.0822
     42 C          65.0836   91.8845   16.2273 C.ar    1  UNL1        0.0226
     43 C          64.3028   90.7926   15.5577 C.ar    1  UNL1        0.0591
     44 CL         63.0469   90.2718   16.1912 Cl      1  UNL1       -0.0824
     45 C          64.7542   88.2316   14.5183 C.3     1  UNL1        0.1915
     46 N          64.0493   87.1010   15.2075 N.ar    1  UNL1       -0.2054
     47 C          64.1208   85.6527   14.8238 C.ar    1  UNL1        0.2216
     48 N          63.2649   84.8769   15.7805 N.ar    1  UNL1       -0.1048
     49 N          62.6644   85.8457   16.7557 N.ar    1  UNL1       -0.0226
     50 N          63.1493   87.2203   16.4015 N.ar    1  UNL1       -0.0427
@<TRIPOS>BOND
     1    28    29    1
     2    29    26    1
     3    26    27    1
     4    26    20    1
     5    20    21   ar
     6    21    22   ar
     7    22    23   ar
     8    23    13    1
     9    13    14   ar
    10    14    15   ar
    11    15    16   ar
    12    16     7    1
    13     7     8    1
    14     8     9    1
    15     9    10    1
    16    10     1    1
    17     1     2   ar
    18     2     3   ar
    19     3     4   ar
    20     4    30    1
    21    30    31    1
    22    32    31    1
    23    32    33    1
    24    33    34    1
    25    34    35    1
    26    35    45    1
    27    45    46    1
    28    46    47   ar
    29    47    48   ar
    30    48    49   ar
    31    49    50   ar
    32    35    37    1
    33    37    38   ar
    34    38    39   ar
    35    39    40   ar
    36    40    41    1
    37    40    42   ar
    38    42    43   ar
    39    43    44    1
    40    35    36    1
    41     4     5   ar
    42     5     6   ar
    43    10    11    1
    44    11    12    1
    45    16    17   ar
    46    17    18    1
    47    17    19   ar
    48    23    24   ar
    49    24    25    2
    50    24    20   ar
    51    19    13   ar
    52    12     7    1
    53     6     1   ar
    54    36    32    1
    55    50    46   ar
    56    43    37   ar
@<TRIPOS>MOLECULE
*****
 50 56 0 0 0
SMALL
GASTEIGER

@<TRIPOS>ATOM
      1 C          60.1167   90.0788    6.5363 C.ar    1  UNL1        0.0481
      2 C          61.0199   90.4663    7.6695 C.ar    1  UNL1        0.0176
      3 C          60.9731   89.7038    8.9604 C.ar    1  UNL1        0.0382
      4 C          60.0231   88.5537    9.1181 C.ar    1  UNL1        0.1388
      5 C          59.1199   88.1662    7.9849 C.ar    1  UNL1        0.0382
      6 C          59.1667   88.9287    6.6940 C.ar    1  UNL1        0.0176
      7 N          60.2570   92.3665    2.6638 N.pl3   1  UNL1       -0.3023
      8 C          61.4919   91.6894    3.1801 C.3     1  UNL1        0.1123
      9 C          61.4452   90.9269    4.4710 C.3     1  UNL1        0.1122
     10 N          60.1635   90.8413    5.2455 N.pl3   1  UNL1       -0.3041
     11 C          58.9285   91.5184    4.7292 C.3     1  UNL1        0.1122
     12 C          58.9753   92.2809    3.4383 C.3     1  UNL1        0.1123
     13 C          60.3972   94.6542   -1.2087 C.ar    1  UNL1        0.0721
     14 C          60.0895   95.3687    0.0737 C.ar    1  UNL1        0.0191
     15 C          60.0427   94.6061    1.3645 C.ar    1  UNL1        0.0183
     16 C          60.3038   93.1290    1.3729 C.ar    1  UNL1        0.0759
     17 C          60.6115   92.4145    0.0904 C.ar    1  UNL1        0.1548
     18 F          60.8725   90.9375    0.0988 F       1  UNL1       -0.2028
     19 C          60.6582   93.1771   -1.2004 C.ar    1  UNL1        0.0486
     20 N          59.8379   96.3257   -4.6669 N.ar    1  UNL1       -0.2024
     21 N          61.1940   96.8550   -4.3051 N.ar    1  UNL1       -0.1442
     22 C          61.5686   96.2932   -2.9657 C.ar    1  UNL1        0.2073
     23 N          60.4440   95.4168   -2.4996 N.ar    1  UNL1       -0.2397
     24 C          59.3744   95.4369   -3.5511 C.ar    1  UNL1        0.3522
     25 O          58.0702   94.6979   -3.4963 O.2     1  UNL1       -0.2444
     26 C          59.0786   96.6315   -5.9239 C.3     1  UNL1        0.1099
     27 C          59.8015   96.7132   -7.2357 C.3     1  UNL1        0.0265
     28 C          56.6705   95.9316   -6.6028 C.3     1  UNL1        0.0021
     29 C          57.5965   96.8557   -5.8691 C.3     1  UNL1        0.0245
     30 O          59.9763   87.7912   10.4089 O.3     1  UNL1       -0.4727
     31 C          59.9054   88.5284   11.7133 C.3     1  UNL1        0.2374
     32 C          61.0680   89.3592   12.1695 C.3     1  UNL1        0.1909
     33 C          61.1407   90.8573   12.1551 C.3     1  UNL1        0.1783
     34 O          62.4796   91.2618   12.6969 O.3     1  UNL1       -0.3266
     35 C          63.2346   90.0135   13.0462 C.3     1  UNL1        0.2315
     36 O          62.3621   88.8376   12.7202 O.3     1  UNL1       -0.3254
     37 C          64.3119   90.9702   13.4634 C.ar    1  UNL1        0.0410
     38 C          64.7247   91.0533   14.9030 C.ar    1  UNL1        0.0022
     39 C          65.8021   92.0101   15.3203 C.ar    1  UNL1        0.0113
     40 C          66.4665   92.8836   14.2979 C.ar    1  UNL1        0.0585
     41 CL         67.5438   93.8403   14.7151 Cl      1  UNL1       -0.0822
     42 C          66.0537   92.8005   12.8582 C.ar    1  UNL1        0.0226
     43 C          64.9763   91.8438   12.4409 C.ar    1  UNL1        0.0591
     44 CL         64.5635   91.7606   11.0013 Cl      1  UNL1       -0.0824
     45 C          64.2147   88.9652   13.4827 C.3     1  UNL1        0.1915
     46 N          63.8957   88.0802   14.6510 N.ar    1  UNL1       -0.2054
     47 C          64.2762   86.6363   14.7931 C.ar    1  UNL1        0.2216
     48 N          63.7559   86.1475   16.1123 N.ar    1  UNL1       -0.1048
     49 N          63.0538   87.2893   16.7855 N.ar    1  UNL1       -0.0226
     50 N          63.1402   88.4838   15.8824 N.ar    1  UNL1       -0.0427
@<TRIPOS>BOND
     1    28    29    1
     2    29    26    1
     3    26    27    1
     4    26    20    1
     5    20    21   ar
     6    21    22   ar
     7    22    23   ar
     8    23    13    1
     9    13    14   ar
    10    14    15   ar
    11    15    16   ar
    12    16     7    1
    13     7     8    1
    14     8     9    1
    15     9    10    1
    16    10     1    1
    17     1     2   ar
    18     2     3   ar
    19     3     4   ar
    20     4    30    1
    21    30    31    1
    22    32    31    1
    23    32    33    1
    24    33    34    1
    25    34    35    1
    26    35    45    1
    27    45    46    1
    28    46    47   ar
    29    47    48   ar
    30    48    49   ar
    31    49    50   ar
    32    35    37    1
    33    37    38   ar
    34    38    39   ar
    35    39    40   ar
    36    40    41    1
    37    40    42   ar
    38    42    43   ar
    39    43    44    1
    40    35    36    1
    41     4     5   ar
    42     5     6   ar
    43    10    11    1
    44    11    12    1
    45    16    17   ar
    46    17    18    1
    47    17    19   ar
    48    23    24   ar
    49    24    25    2
    50    24    20   ar
    51    19    13   ar
    52    12     7    1
    53     6     1   ar
    54    36    32    1
    55    50    46   ar
    56    43    37   ar
@<TRIPOS>MOLECULE
*****
 50 56 0 0 0
SMALL
GASTEIGER

@<TRIPOS>ATOM
      1 C          60.0598   90.1506    6.5244 C.ar    1  UNL1        0.0481
      2 C          60.7640   90.6193    7.7630 C.ar    1  UNL1        0.0176
      3 C          60.5776   89.8823    9.0562 C.ar    1  UNL1        0.0382
      4 C          59.6869   88.6766    9.1105 C.ar    1  UNL1        0.1388
      5 C          58.9826   88.2079    7.8718 C.ar    1  UNL1        0.0382
      6 C          59.1691   88.9449    6.5787 C.ar    1  UNL1        0.0176
      7 N          60.6192   92.3616    2.6451 N.pl3   1  UNL1       -0.3023
      8 C          59.2862   92.3787    3.3326 C.3     1  UNL1        0.1123
      9 C          59.0997   91.6416    4.6257 C.3     1  UNL1        0.1122
     10 N          60.2462   90.8876    5.2313 N.pl3   1  UNL1       -0.3041
     11 C          61.5793   90.8705    4.5438 C.3     1  UNL1        0.1122
     12 C          61.7658   91.6075    3.2507 C.3     1  UNL1        0.1123
     13 C          61.1787   94.5725   -1.2341 C.ar    1  UNL1        0.0721
     14 C          60.0354   93.6147   -1.0749 C.ar    1  UNL1        0.0191
     15 C          59.8489   92.8778    0.2181 C.ar    1  UNL1        0.0183
     16 C          60.8057   93.0986    1.3520 C.ar    1  UNL1        0.0759
     17 C          61.9491   94.0564    1.1928 C.ar    1  UNL1        0.1548
     18 F          62.9059   94.2773    2.3267 F       1  UNL1       -0.2028
     19 C          62.1355   94.7934   -0.1002 C.ar    1  UNL1        0.0486
     20 N          62.2641   96.0349   -4.6618 N.ar    1  UNL1       -0.2024
     21 N          61.0402   96.8525   -4.3723 N.ar    1  UNL1       -0.1442
     22 C          60.4847   96.4042   -3.0531 C.ar    1  UNL1        0.2073
     23 N          61.3652   95.3096   -2.5272 N.ar    1  UNL1       -0.2397
     24 C          62.4649   95.0813   -3.5215 C.ar    1  UNL1        0.3522
     25 O          63.5712   94.0760   -3.3973 O.2     1  UNL1       -0.2444
     26 C          63.1343   96.1506   -5.8781 C.3     1  UNL1        0.1099
     27 C          62.5285   96.0466   -7.2464 C.3     1  UNL1        0.0265
     28 C          65.5777   95.3403   -6.2293 C.3     1  UNL1        0.0021
     29 C          64.6103   96.3703   -5.7261 C.3     1  UNL1        0.0245
     30 O          59.5004   87.9396   10.4036 O.3     1  UNL1       -0.4727
     31 C          60.6962   87.4915   11.1906 C.3     1  UNL1        0.2374
     32 C          61.6516   88.5059   11.7460 C.3     1  UNL1        0.1909
     33 C          61.5664   89.9919   11.5597 C.3     1  UNL1        0.1783
     34 O          62.7220   90.6167   12.2837 O.3     1  UNL1       -0.3266
     35 C          63.5214   89.5169   12.9174 C.3     1  UNL1        0.2315
     36 O          62.8598   88.2124   12.5850 O.3     1  UNL1       -0.3254
     37 C          64.3879   90.6407   13.4034 C.ar    1  UNL1        0.0410
     38 C          64.7581   90.7287   14.8543 C.ar    1  UNL1        0.0022
     39 C          65.6247   91.8526   15.3405 C.ar    1  UNL1        0.0113
     40 C          66.1210   92.8882   14.3756 C.ar    1  UNL1        0.0585
     41 CL         66.9876   94.0119   14.8617 Cl      1  UNL1       -0.0822
     42 C          65.7509   92.8002   12.9246 C.ar    1  UNL1        0.0226
     43 C          64.8843   91.6764   12.4385 C.ar    1  UNL1        0.0591
     44 CL         64.5141   91.5883   10.9876 Cl      1  UNL1       -0.0824
     45 C          64.5019   88.6521   13.6527 C.3     1  UNL1        0.1915
     46 N          64.0276   87.7475   14.7512 N.ar    1  UNL1       -0.2054
     47 C          64.2324   86.2633   14.8215 C.ar    1  UNL1        0.2216
     48 N          63.5966   85.7669   16.0860 N.ar    1  UNL1       -0.1048
     49 N          62.9988   86.9443   16.7975 N.ar    1  UNL1       -0.0226
     50 N          63.2651   88.1685   15.9725 N.ar    1  UNL1       -0.0427
@<TRIPOS>BOND
     1    28    29    1
     2    29    26    1
     3    26    27    1
     4    26    20    1
     5    20    21   ar
     6    21    22   ar
     7    22    23   ar
     8    23    13    1
     9    13    14   ar
    10    14    15   ar
    11    15    16   ar
    12    16     7    1
    13     7     8    1
    14     8     9    1
    15     9    10    1
    16    10     1    1
    17     1     2   ar
    18     2     3   ar
    19     3     4   ar
    20     4    30    1
    21    30    31    1
    22    32    31    1
    23    32    33    1
    24    33    34    1
    25    34    35    1
    26    35    45    1
    27    45    46    1
    28    46    47   ar
    29    47    48   ar
    30    48    49   ar
    31    49    50   ar
    32    35    37    1
    33    37    38   ar
    34    38    39   ar
    35    39    40   ar
    36    40    41    1
    37    40    42   ar
    38    42    43   ar
    39    43    44    1
    40    35    36    1
    41     4     5   ar
    42     5     6   ar
    43    10    11    1
    44    11    12    1
    45    16    17   ar
    46    17    18    1
    47    17    19   ar
    48    23    24   ar
    49    24    25    2
    50    24    20   ar
    51    19    13   ar
    52    12     7    1
    53     6     1   ar
    54    36    32    1
    55    50    46   ar
    56    43    37   ar
@<TRIPOS>MOLECULE
*****
 50 56 0 0 0
SMALL
GASTEIGER

@<TRIPOS>ATOM
      1 C          60.3387   90.3818    6.8421 C.ar    1  UNL1        0.0481
      2 C          59.4574   89.2304    7.2261 C.ar    1  UNL1        0.0176
      3 C          59.6158   88.5797    8.5684 C.ar    1  UNL1        0.0382
      4 C          60.6557   89.0805    9.5265 C.ar    1  UNL1        0.1388
      5 C          61.5370   90.2319    9.1424 C.ar    1  UNL1        0.0382
      6 C          61.3785   90.8825    7.8002 C.ar    1  UNL1        0.0176
      7 N          59.8631   92.3337    2.8154 N.pl3   1  UNL1       -0.3023
      8 C          61.2186   91.8873    3.2771 C.3     1  UNL1        0.1123
      9 C          61.3772   91.2366    4.6193 C.3     1  UNL1        0.1122
     10 N          60.1802   91.0324    5.4999 N.pl3   1  UNL1       -0.3041
     11 C          58.8245   91.4788    5.0382 C.3     1  UNL1        0.1122
     12 C          58.6660   92.1295    3.6960 C.3     1  UNL1        0.1123
     13 C          59.3874   94.2855   -1.2112 C.ar    1  UNL1        0.0721
     14 C          59.2584   92.7969   -1.0794 C.ar    1  UNL1        0.0191
     15 C          59.4169   92.1464    0.2628 C.ar    1  UNL1        0.0183
     16 C          59.7045   92.9844    1.4732 C.ar    1  UNL1        0.0759
     17 C          59.8335   94.4729    1.3414 C.ar    1  UNL1        0.1548
     18 F          60.1211   95.3109    2.5518 F       1  UNL1       -0.2028
     19 C          59.6749   95.1235   -0.0008 C.ar    1  UNL1        0.0486
     20 N          58.3482   95.5564   -4.7284 N.ar    1  UNL1       -0.2024
     21 N          59.6215   96.3186   -4.5094 N.ar    1  UNL1       -0.1442
     22 C          60.1657   95.9353   -3.1652 C.ar    1  UNL1        0.2073
     23 N          59.2288   94.9362   -2.5535 N.ar    1  UNL1       -0.2397
     24 C          58.1056   94.7020   -3.5196 C.ar    1  UNL1        0.3522
     25 O          56.9437   93.7761   -3.3133 O.2     1  UNL1       -0.2444
     26 C          57.4716   95.6347   -5.9431 C.3     1  UNL1        0.1099
     27 C          57.8696   94.9237   -7.2024 C.3     1  UNL1        0.0265
     28 C          54.8783   95.7151   -5.8070 C.3     1  UNL1        0.0021
     29 C          56.1969   96.4242   -5.8984 C.3     1  UNL1        0.0245
     30 O          60.8142   88.4298   10.8687 O.3     1  UNL1       -0.4727
     31 C          62.1198   87.7942   11.2445 C.3     1  UNL1        0.2374
     32 C          62.1788   86.3272   11.5521 C.3     1  UNL1        0.1909
     33 C          61.5613   85.2299   10.7368 C.3     1  UNL1        0.1783
     34 O          61.8664   83.9245   11.4098 O.3     1  UNL1       -0.3266
     35 C          62.6725   84.2151   12.6410 C.3     1  UNL1        0.2315
     36 O          62.8655   85.7000   12.7289 O.3     1  UNL1       -0.3254
     37 C          62.6469   82.7258   12.8182 C.ar    1  UNL1        0.0410
     38 C          61.8827   82.1192   13.9575 C.ar    1  UNL1        0.0022
     39 C          61.8571   80.6298   14.1347 C.ar    1  UNL1        0.0113
     40 C          62.5955   79.7473   13.1726 C.ar    1  UNL1        0.0585
     41 CL         62.5698   78.2580   13.3498 Cl      1  UNL1       -0.0822
     42 C          63.3596   80.3539   12.0332 C.ar    1  UNL1        0.0226
     43 C          63.3853   81.8432   11.8560 C.ar    1  UNL1        0.0591
     44 CL         64.1494   82.4499   10.7167 Cl      1  UNL1       -0.0824
     45 C          63.4732   84.1943   13.9092 C.3     1  UNL1        0.1915
     46 N          63.0113   84.9795   15.1009 N.ar    1  UNL1       -0.2054
     47 C          63.8533   85.9065   15.9264 C.ar    1  UNL1        0.2216
     48 N          62.9886   86.4755   17.0119 N.ar    1  UNL1       -0.1048
     49 N          61.6120   85.9002   16.8573 N.ar    1  UNL1       -0.0226
     50 N          61.6260   84.9756   15.6762 N.ar    1  UNL1       -0.0427
@<TRIPOS>BOND
     1    28    29    1
     2    29    26    1
     3    26    27    1
     4    26    20    1
     5    20    21   ar
     6    21    22   ar
     7    22    23   ar
     8    23    13    1
     9    13    14   ar
    10    14    15   ar
    11    15    16   ar
    12    16     7    1
    13     7     8    1
    14     8     9    1
    15     9    10    1
    16    10     1    1
    17     1     2   ar
    18     2     3   ar
    19     3     4   ar
    20     4    30    1
    21    30    31    1
    22    32    31    1
    23    32    33    1
    24    33    34    1
    25    34    35    1
    26    35    45    1
    27    45    46    1
    28    46    47   ar
    29    47    48   ar
    30    48    49   ar
    31    49    50   ar
    32    35    37    1
    33    37    38   ar
    34    38    39   ar
    35    39    40   ar
    36    40    41    1
    37    40    42   ar
    38    42    43   ar
    39    43    44    1
    40    35    36    1
    41     4     5   ar
    42     5     6   ar
    43    10    11    1
    44    11    12    1
    45    16    17   ar
    46    17    18    1
    47    17    19   ar
    48    23    24   ar
    49    24    25    2
    50    24    20   ar
    51    19    13   ar
    52    12     7    1
    53     6     1   ar
    54    36    32    1
    55    50    46   ar
    56    43    37   ar
@<TRIPOS>MOLECULE
*****
 50 56 0 0 0
SMALL
GASTEIGER

@<TRIPOS>ATOM
      1 C          60.4672   90.4365    6.7142 C.ar    1  UNL1        0.0481
      2 C          61.4594   90.9439    7.7182 C.ar    1  UNL1        0.0176
      3 C          61.5392   90.3149    9.0777 C.ar    1  UNL1        0.0382
      4 C          60.6269   89.1785    9.4330 C.ar    1  UNL1        0.1388
      5 C          59.6347   88.6711    8.4289 C.ar    1  UNL1        0.0382
      6 C          59.5549   89.3001    7.0695 C.ar    1  UNL1        0.0176
      7 N          60.2279   92.3236    2.6360 N.pl3   1  UNL1       -0.3023
      8 C          59.0013   92.2359    3.4950 C.3     1  UNL1        0.1123
      9 C          59.0811   91.6069    4.8544 C.3     1  UNL1        0.1122
     10 N          60.3874   91.0655    5.3548 N.pl3   1  UNL1       -0.3041
     11 C          61.6140   91.1533    4.4958 C.3     1  UNL1        0.1122
     12 C          61.5342   91.7823    3.1364 C.3     1  UNL1        0.1123
     13 C          59.9885   94.2107   -1.4422 C.ar    1  UNL1        0.0721
     14 C          58.7370   93.7566   -0.7513 C.ar    1  UNL1        0.0191
     15 C          58.8168   93.1276    0.6081 C.ar    1  UNL1        0.0183
     16 C          60.1481   92.9527    1.2766 C.ar    1  UNL1        0.0759
     17 C          61.3997   93.4067    0.5857 C.ar    1  UNL1        0.1548
     18 F          62.7311   93.2317    1.2541 F       1  UNL1       -0.2028
     19 C          61.3199   94.0357   -0.7737 C.ar    1  UNL1        0.0486
     20 N          60.4091   95.4439   -5.0984 N.ar    1  UNL1       -0.2024
     21 N          59.1629   96.1715   -4.6886 N.ar    1  UNL1       -0.1442
     22 C          58.8538   95.7980   -3.2691 C.ar    1  UNL1        0.2073
     23 N          59.9088   94.8397   -2.8016 N.ar    1  UNL1       -0.2397
     24 C          60.8700   94.6209   -3.9322 C.ar    1  UNL1        0.3522
     25 O          62.0798   93.7346   -3.9018 O.2     1  UNL1       -0.2444
     26 C          61.0770   95.5252   -6.4390 C.3     1  UNL1        0.1099
     27 C          61.5160   96.8540   -6.9789 C.3     1  UNL1        0.0265
     28 C          62.6936   93.7296   -7.3941 C.3     1  UNL1        0.0021
     29 C          61.3060   94.2777   -7.2398 C.3     1  UNL1        0.0245
     30 O          60.7066   88.5495   10.7924 O.3     1  UNL1       -0.4727
     31 C          62.0001   87.9599   11.2712 C.3     1  UNL1        0.2374
     32 C          62.0971   86.4887   11.5472 C.3     1  UNL1        0.1909
     33 C          61.4404   85.3977   10.7545 C.3     1  UNL1        0.1783
     34 O          61.8052   84.0849   11.3818 O.3     1  UNL1       -0.3266
     35 C          62.6875   84.3646   12.5623 C.3     1  UNL1        0.2315
     36 O          62.8679   85.8502   12.6645 O.3     1  UNL1       -0.3254
     37 C          62.6918   82.8723   12.7134 C.ar    1  UNL1        0.0410
     38 C          61.9728   82.2330   13.8642 C.ar    1  UNL1        0.0022
     39 C          61.9770   80.7405   14.0153 C.ar    1  UNL1        0.0113
     40 C          62.7001   79.8875   13.0157 C.ar    1  UNL1        0.0585
     41 CL         62.7044   78.3952   13.1669 Cl      1  UNL1       -0.0822
     42 C          63.4191   80.5268   11.8649 C.ar    1  UNL1        0.0226
     43 C          63.4149   82.0192   11.7137 C.ar    1  UNL1        0.0591
     44 CL         64.1339   82.6585   10.5629 Cl      1  UNL1       -0.0824
     45 C          63.5707   84.3323   13.7743 C.3     1  UNL1        0.1915
     46 N          63.2154   85.1462   14.9831 N.ar    1  UNL1       -0.2054
     47 C          62.1683   84.8027   16.0007 C.ar    1  UNL1        0.2216
     48 N          62.1506   85.8907   17.0331 N.ar    1  UNL1       -0.1048
     49 N          63.1867   86.9067   16.6535 N.ar    1  UNL1       -0.0226
     50 N          63.8448   86.4466   15.3865 N.ar    1  UNL1       -0.0427
@<TRIPOS>BOND
     1    28    29    1
     2    29    26    1
     3    26    27    1
     4    26    20    1
     5    20    21   ar
     6    21    22   ar
     7    22    23   ar
     8    23    13    1
     9    13    14   ar
    10    14    15   ar
    11    15    16   ar
    12    16     7    1
    13     7     8    1
    14     8     9    1
    15     9    10    1
    16    10     1    1
    17     1     2   ar
    18     2     3   ar
    19     3     4   ar
    20     4    30    1
    21    30    31    1
    22    32    31    1
    23    32    33    1
    24    33    34    1
    25    34    35    1
    26    35    45    1
    27    45    46    1
    28    46    47   ar
    29    47    48   ar
    30    48    49   ar
    31    49    50   ar
    32    35    37    1
    33    37    38   ar
    34    38    39   ar
    35    39    40   ar
    36    40    41    1
    37    40    42   ar
    38    42    43   ar
    39    43    44    1
    40    35    36    1
    41     4     5   ar
    42     5     6   ar
    43    10    11    1
    44    11    12    1
    45    16    17   ar
    46    17    18    1
    47    17    19   ar
    48    23    24   ar
    49    24    25    2
    50    24    20   ar
    51    19    13   ar
    52    12     7    1
    53     6     1   ar
    54    36    32    1
    55    50    46   ar
    56    43    37   ar
@<TRIPOS>MOLECULE
*****
 50 56 0 0 0
SMALL
GASTEIGER

@<TRIPOS>ATOM
      1 C          59.5086   93.1930    2.2469 C.ar    1  UNL1        0.0481
      2 C          60.1129   94.5647    2.1913 C.ar    1  UNL1        0.0176
      3 C          59.8675   95.4448    1.0015 C.ar    1  UNL1        0.0382
      4 C          59.0177   94.9530   -0.1325 C.ar    1  UNL1        0.1388
      5 C          58.4134   93.5812   -0.0768 C.ar    1  UNL1        0.0382
      6 C          58.6589   92.7012    1.1129 C.ar    1  UNL1        0.0176
      7 N          60.2450   90.5532    5.8161 N.pl3   1  UNL1       -0.3023
      8 C          61.3771   90.9049    4.8971 C.3     1  UNL1        0.1123
      9 C          61.1317   91.7848    3.7073 C.3     1  UNL1        0.1122
     10 N          59.7541   92.3131    3.4366 N.pl3   1  UNL1       -0.3041
     11 C          58.6220   91.9614    4.3557 C.3     1  UNL1        0.1122
     12 C          58.8674   91.0814    5.5454 C.3     1  UNL1        0.1123
     13 C          60.9813   87.9134    9.3853 C.ar    1  UNL1        0.0721
     14 C          61.5682   89.2930    9.3390 C.ar    1  UNL1        0.0191
     15 C          61.3227   90.1729    8.1493 C.ar    1  UNL1        0.0183
     16 C          60.4904   89.6732    7.0058 C.ar    1  UNL1        0.0759
     17 C          59.9036   88.2936    7.0521 C.ar    1  UNL1        0.1548
     18 F          59.0712   87.7938    5.9086 F       1  UNL1       -0.2028
     19 C          60.1490   87.4137    8.2418 C.ar    1  UNL1        0.0486
     20 N          62.0549   85.2455   11.9920 N.ar    1  UNL1       -0.2024
     21 N          61.1538   86.1133   12.8198 N.ar    1  UNL1       -0.1442
     22 C          60.6420   87.2183   11.9440 C.ar    1  UNL1        0.2073
     23 N          61.2267   87.0334   10.5751 N.ar    1  UNL1       -0.2397
     24 C          62.0999   85.8142   10.6048 C.ar    1  UNL1        0.3522
     25 O          62.8810   85.2607    9.4500 O.2     1  UNL1       -0.2444
     26 C          62.7831   84.0235   12.4681 C.3     1  UNL1        0.1099
     27 C          62.6096   82.7190   11.7482 C.3     1  UNL1        0.0265
     28 C          63.1866   83.6713   15.0103 C.3     1  UNL1        0.0021
     29 C          63.6847   84.1060   13.6640 C.3     1  UNL1        0.0245
     30 O          58.7722   95.8329   -1.3222 O.3     1  UNL1       -0.4727
     31 C          59.8235   96.8075   -1.7638 C.3     1  UNL1        0.2374
     32 C          60.9323   96.3562   -2.6677 C.3     1  UNL1        0.1909
     33 C          60.8010   96.0184   -4.1233 C.3     1  UNL1        0.1783
     34 O          62.1546   95.6170   -4.6299 O.3     1  UNL1       -0.3266
     35 C          63.1224   95.7066   -3.4874 C.3     1  UNL1        0.2315
     36 O          62.3670   96.1635   -2.2747 O.3     1  UNL1       -0.3254
     37 C          64.1239   95.2484   -4.5058 C.ar    1  UNL1        0.0410
     38 C          64.9633   96.2536   -5.2372 C.ar    1  UNL1        0.0022
     39 C          65.9649   95.7955   -6.2556 C.ar    1  UNL1        0.0113
     40 C          66.1270   94.3322   -6.5425 C.ar    1  UNL1        0.0585
     41 CL         67.1285   93.8741   -7.5609 Cl      1  UNL1       -0.0822
     42 C          65.2876   93.3269   -5.8112 C.ar    1  UNL1        0.0226
     43 C          64.2860   93.7851   -4.7927 C.ar    1  UNL1        0.0591
     44 CL         63.4467   92.7799   -4.0613 Cl      1  UNL1       -0.0824
     45 C          64.2996   95.7004   -2.5578 C.3     1  UNL1        0.1915
     46 N          64.2127   94.9850   -1.2423 N.ar    1  UNL1       -0.2054
     47 C          65.0275   95.2861   -0.0194 C.ar    1  UNL1        0.2216
     48 N          64.6141   94.3301    1.0600 N.ar    1  UNL1       -0.1048
     49 N          63.5438   93.4381    0.5042 N.ar    1  UNL1       -0.0226
     50 N          63.2958   93.8429   -0.9187 N.ar    1  UNL1       -0.0427
@<TRIPOS>BOND
     1    28    29    1
     2    29    26    1
     3    26    27    1
     4    26    20    1
     5    20    21   ar
     6    21    22   ar
     7    22    23   ar
     8    23    13    1
     9    13    14   ar
    10    14    15   ar
    11    15    16   ar
    12    16     7    1
    13     7     8    1
    14     8     9    1
    15     9    10    1
    16    10     1    1
    17     1     2   ar
    18     2     3   ar
    19     3     4   ar
    20     4    30    1
    21    30    31    1
    22    32    31    1
    23    32    33    1
    24    33    34    1
    25    34    35    1
    26    35    45    1
    27    45    46    1
    28    46    47   ar
    29    47    48   ar
    30    48    49   ar
    31    49    50   ar
    32    35    37    1
    33    37    38   ar
    34    38    39   ar
    35    39    40   ar
    36    40    41    1
    37    40    42   ar
    38    42    43   ar
    39    43    44    1
    40    35    36    1
    41     4     5   ar
    42     5     6   ar
    43    10    11    1
    44    11    12    1
    45    16    17   ar
    46    17    18    1
    47    17    19   ar
    48    23    24   ar
    49    24    25    2
    50    24    20   ar
    51    19    13   ar
    52    12     7    1
    53     6     1   ar
    54    36    32    1
    55    50    46   ar
    56    43    37   ar
