@<TRIPOS>MOLECULE
*****
 32 35 0 0 0
SMALL
GASTEIGER

@<TRIPOS>ATOM
      1 C          62.7861   86.4809   12.2394 C.ar    1  UNL1        0.0874
      2 N          63.6117   87.4289   13.0577 N.ar    1  UNL1       -0.2239
      3 C          63.6138   88.8934   12.7338 C.ar    1  UNL1        0.1988
      4 N          62.7902   89.4101   11.5915 N.ar    1  UNL1       -0.2239
      5 C          61.9646   88.4621   10.7732 C.ar    1  UNL1        0.0858
      6 C          61.1410   88.9787    9.6309 C.ar    1  UNL1        0.0394
      7 C          60.3153   88.0308    8.8126 C.ar    1  UNL1        0.1267
      8 C          60.3133   86.5661    9.1365 C.ar    1  UNL1        0.0203
      9 C          61.1369   86.0495   10.2788 C.ar    1  UNL1        0.0044
     10 C          61.9625   86.9975   11.0971 C.ar    1  UNL1        0.0356
     11 C          62.7809   84.5645   13.9937 C.ar    1  UNL1        0.1400
     12 C          62.7788   83.1000   14.3177 C.ar    1  UNL1        0.0408
     13 C          62.7800   82.0871   13.2113 C.ar    1  UNL1        0.0744
     14 C          62.7832   82.5388   11.7809 C.ar    1  UNL1        0.0041
     15 C          62.7853   84.0035   11.4570 C.ar    1  UNL1        0.0045
     16 C          62.7841   85.0163   12.5634 C.ar    1  UNL1        0.0517
     17 C          62.7780   80.6225   13.5352 C.3     1  UNL1        0.4187
     18 F          62.7759   79.1579   13.8592 F       1  UNL1       -0.1659
     19 F          64.2769   80.6324   13.5896 F       1  UNL1       -0.1659
     20 F          61.2790   80.6126   13.4809 F       1  UNL1       -0.1659
     21 C          63.8801   85.5759   16.1195 C.3     1  UNL1        0.2525
     22 O          62.7797   85.5775   15.1001 O.3     1  UNL1       -0.4714
     23 S          59.4917   88.5474    7.6703 S.O2    1  UNL1        0.0751
     24 O          59.8160   89.9554    8.0733 O.2     1  UNL1       -0.1499
     25 O          59.1675   87.1394    7.2673 O.2     1  UNL1       -0.1499
     26 N          58.6681   89.0640    6.5280 N.pl3   1  UNL1       -0.1937
     27 H          57.8088   88.6370    6.3081 H       1  UNL1        0.1758
     28 C          59.1540   90.2312    5.7208 C.ar    1  UNL1        0.1786
     29 N          60.5662   90.4673    5.2737 N.ar    1  UNL1       -0.2214
     30 C          60.5978   91.7493    4.4955 C.ar    1  UNL1        0.1079
     31 C          59.2051   92.3055    4.4616 C.ar    1  UNL1        0.0588
     32 S          58.3128   91.3673    5.2189 S.2     1  UNL1       -0.0497
@<TRIPOS>BOND
     1    21    22    1
     2    22    11    1
     3    11    12   ar
     4    12    13   ar
     5    13    17    1
     6    17    18    1
     7    17    19    1
     8    17    20    1
     9    13    14   ar
    10    14    15   ar
    11    15    16   ar
    12    16     1    1
    13     1     2   ar
    14     2     3   ar
    15     3     4   ar
    16     4     5   ar
    17     5     6   ar
    18     6     7   ar
    19     7    23    1
    20    23    24    2
    21    23    25    2
    22    23    26    1
    23    26    28    1
    24    28    29   ar
    25    29    30   ar
    26    30    31   ar
    27    31    32   ar
    28     7     8   ar
    29     8     9   ar
    30     9    10   ar
    31    16    11   ar
    32    10     1   ar
    33    10     5   ar
    34    32    28   ar
    35    26    27    1
@<TRIPOS>MOLECULE
*****
 32 35 0 0 0
SMALL
GASTEIGER

@<TRIPOS>ATOM
      1 C          62.1339   87.4965   10.8989 C.ar    1  UNL1        0.0874
      2 N          61.2737   87.9638    9.7625 N.ar    1  UNL1       -0.2239
      3 C          61.0511   89.4311    9.5446 C.ar    1  UNL1        0.1988
      4 N          61.6887   90.4310   10.4631 N.ar    1  UNL1       -0.2239
      5 C          62.5490   89.9636   11.5995 C.ar    1  UNL1        0.0858
      6 C          63.1866   90.9635   12.5180 C.ar    1  UNL1        0.0394
      7 C          64.0469   90.4961   13.6544 C.ar    1  UNL1        0.1267
      8 C          64.2695   89.0287   13.8724 C.ar    1  UNL1        0.0203
      9 C          63.6319   88.0289   12.9539 C.ar    1  UNL1        0.0044
     10 C          62.7716   88.4963   11.8174 C.ar    1  UNL1        0.0356
     11 C          62.7507   85.1513    9.9662 C.ar    1  UNL1        0.1400
     12 C          62.9734   83.6840   10.1840 C.ar    1  UNL1        0.0408
     13 C          62.8019   83.0945   11.5527 C.ar    1  UNL1        0.0744
     14 C          62.4077   83.9723   12.7034 C.ar    1  UNL1        0.0041
     15 C          62.1851   85.4397   12.4854 C.ar    1  UNL1        0.0045
     16 C          62.3566   86.0291   11.1168 C.ar    1  UNL1        0.0517
     17 C          63.0245   81.6272   11.7706 C.3     1  UNL1        0.4187
     18 F          63.2471   80.1600   11.9885 F       1  UNL1       -0.1659
     19 F          63.4955   81.4883   10.3533 F       1  UNL1       -0.1659
     20 F          62.5535   81.7662   13.1879 F       1  UNL1       -0.1659
     21 C          62.6544   84.9043    7.3816 C.3     1  UNL1        0.2525
     22 O          62.9223   85.7408    8.5975 O.3     1  UNL1       -0.4714
     23 S          64.6845   91.4960   14.5729 S.O2    1  UNL1        0.0751
     24 O          64.3505   90.6279   15.7497 O.2     1  UNL1       -0.1499
     25 O          65.0186   92.3640   13.3961 O.2     1  UNL1       -0.1499
     26 N          65.3222   92.4958   15.4914 N.pl3   1  UNL1       -0.1937
     27 H          64.7663   93.0135   16.1177 H       1  UNL1        0.1758
     28 C          66.8069   92.7069   15.4557 C.ar    1  UNL1        0.1786
     29 N          67.5499   93.8515   16.0785 N.ar    1  UNL1       -0.2214
     30 C          69.0114   93.6624   15.7986 C.ar    1  UNL1        0.1079
     31 C          69.1716   92.4010   15.0029 C.ar    1  UNL1        0.0588
     32 S          67.8091   91.8105   14.7910 S.2     1  UNL1       -0.0497
@<TRIPOS>BOND
     1    21    22    1
     2    22    11    1
     3    11    12   ar
     4    12    13   ar
     5    13    17    1
     6    17    18    1
     7    17    19    1
     8    17    20    1
     9    13    14   ar
    10    14    15   ar
    11    15    16   ar
    12    16     1    1
    13     1     2   ar
    14     2     3   ar
    15     3     4   ar
    16     4     5   ar
    17     5     6   ar
    18     6     7   ar
    19     7    23    1
    20    23    24    2
    21    23    25    2
    22    23    26    1
    23    26    28    1
    24    28    29   ar
    25    29    30   ar
    26    30    31   ar
    27    31    32   ar
    28     7     8   ar
    29     8     9   ar
    30     9    10   ar
    31    16    11   ar
    32    10     1   ar
    33    10     5   ar
    34    32    28   ar
    35    26    27    1
@<TRIPOS>MOLECULE
*****
 32 35 0 0 0
SMALL
GASTEIGER

@<TRIPOS>ATOM
      1 C          62.8004   86.4723   12.3141 C.ar    1  UNL1        0.0874
      2 N          63.6384   87.4223   13.1173 N.ar    1  UNL1       -0.2239
      3 C          63.6496   88.8833   12.7780 C.ar    1  UNL1        0.1988
      4 N          62.8229   89.3943   11.6354 N.ar    1  UNL1       -0.2239
      5 C          61.9850   88.4443   10.8322 C.ar    1  UNL1        0.0858
      6 C          61.1583   88.9553    9.6896 C.ar    1  UNL1        0.0394
      7 C          60.3204   88.0052    8.8864 C.ar    1  UNL1        0.1267
      8 C          60.3091   86.5441    9.2257 C.ar    1  UNL1        0.0203
      9 C          61.1358   86.0331   10.3683 C.ar    1  UNL1        0.0044
     10 C          61.9737   86.9833   11.1715 C.ar    1  UNL1        0.0356
     11 C          63.3427   84.0113   11.6819 C.ar    1  UNL1        0.1400
     12 C          63.3314   82.5502   12.0211 C.ar    1  UNL1        0.0408
     13 C          62.7666   82.0890   13.3320 C.ar    1  UNL1        0.0744
     14 C          62.2131   83.0888   14.3036 C.ar    1  UNL1        0.0041
     15 C          62.2244   84.5499   13.9642 C.ar    1  UNL1        0.0045
     16 C          62.7891   85.0111   12.6534 C.ar    1  UNL1        0.0517
     17 C          62.7553   80.6279   13.6713 C.3     1  UNL1        0.4187
     18 F          62.7441   79.1668   14.0105 F       1  UNL1       -0.1659
     19 F          61.2669   80.5970   13.4886 F       1  UNL1       -0.1659
     20 F          64.2438   80.6588   13.8539 F       1  UNL1       -0.1659
     21 C          63.5478   83.7533    9.1047 C.3     1  UNL1        0.2525
     22 O          63.9075   84.4726   10.3710 O.3     1  UNL1       -0.4714
     23 S          59.4937   88.5162    7.7438 S.O2    1  UNL1        0.0751
     24 O          59.1295   87.1080    7.3775 O.2     1  UNL1       -0.1499
     25 O          59.8578   89.9245    8.1102 O.2     1  UNL1       -0.1499
     26 N          58.6670   89.0272    6.6012 N.pl3   1  UNL1       -0.1937
     27 H          57.8031   88.6045    6.3910 H       1  UNL1        0.1758
     28 C          59.1566   90.1823    5.7790 C.ar    1  UNL1        0.1786
     29 N          60.5705   90.4107    5.3332 N.ar    1  UNL1       -0.2214
     30 C          60.6060   91.6813    4.5368 C.ar    1  UNL1        0.1079
     31 C          59.2140   92.2383    4.4904 C.ar    1  UNL1        0.0588
     32 S          58.3182   91.3119    5.2581 S.2     1  UNL1       -0.0497
@<TRIPOS>BOND
     1    21    22    1
     2    22    11    1
     3    11    12   ar
     4    12    13   ar
     5    13    17    1
     6    17    18    1
     7    17    19    1
     8    17    20    1
     9    13    14   ar
    10    14    15   ar
    11    15    16   ar
    12    16     1    1
    13     1     2   ar
    14     2     3   ar
    15     3     4   ar
    16     4     5   ar
    17     5     6   ar
    18     6     7   ar
    19     7    23    1
    20    23    24    2
    21    23    25    2
    22    23    26    1
    23    26    28    1
    24    28    29   ar
    25    29    30   ar
    26    30    31   ar
    27    31    32   ar
    28     7     8   ar
    29     8     9   ar
    30     9    10   ar
    31    16    11   ar
    32    10     1   ar
    33    10     5   ar
    34    32    28   ar
    35    26    27    1
@<TRIPOS>MOLECULE
*****
 32 35 0 0 0
SMALL
GASTEIGER

@<TRIPOS>ATOM
      1 C          62.9993   85.4089   12.7006 C.ar    1  UNL1        0.0874
      2 N          62.9344   84.1927   13.5762 N.ar    1  UNL1       -0.2239
      3 C          63.2456   84.3043   15.0392 C.ar    1  UNL1        0.1988
      4 N          63.6217   85.6323   15.6268 N.ar    1  UNL1       -0.2239
      5 C          63.6866   86.8485   14.7513 C.ar    1  UNL1        0.0858
      6 C          64.0627   88.1764   15.3388 C.ar    1  UNL1        0.0394
      7 C          64.1275   89.3926   14.4633 C.ar    1  UNL1        0.1267
      8 C          63.8163   89.2809   13.0002 C.ar    1  UNL1        0.0203
      9 C          63.4402   87.9530   12.4126 C.ar    1  UNL1        0.0044
     10 C          63.3754   86.7368   13.2882 C.ar    1  UNL1        0.0356
     11 C          61.5285   86.0518   10.6577 C.ar    1  UNL1        0.1400
     12 C          61.2173   85.9402    9.1946 C.ar    1  UNL1        0.0408
     13 C          62.0656   85.0740    8.3113 C.ar    1  UNL1        0.0744
     14 C          63.2251   84.3194    8.8911 C.ar    1  UNL1        0.0041
     15 C          63.5363   84.4311   10.3542 C.ar    1  UNL1        0.0045
     16 C          62.6880   85.2972   11.2375 C.ar    1  UNL1        0.0517
     17 C          61.7543   84.9623    6.8482 C.3     1  UNL1        0.4187
     18 F          61.4431   84.8507    5.3851 F       1  UNL1       -0.1659
     19 F          60.3357   85.3672    7.1191 F       1  UNL1       -0.1659
     20 F          63.1730   84.5574    6.5773 F       1  UNL1       -0.1659
     21 C          60.0005   88.1290   10.9742 C.3     1  UNL1        0.2525
     22 O          60.6802   86.9180   11.5410 O.3     1  UNL1       -0.4714
     23 S          64.5036   90.7205   15.0509 S.O2    1  UNL1        0.0751
     24 O          65.5874   90.8678   14.0243 O.2     1  UNL1       -0.1499
     25 O          63.4199   90.5732   16.0774 O.2     1  UNL1       -0.1499
     26 N          64.8797   92.0484   15.6384 N.pl3   1  UNL1       -0.1937
     27 H          64.1878   92.6237   16.0378 H       1  UNL1        0.1758
     28 C          66.3101   92.4998   15.6174 C.ar    1  UNL1        0.1786
     29 N          67.4013   92.0143   16.5250 N.ar    1  UNL1       -0.2214
     30 C          68.6659   92.7304   16.1536 C.ar    1  UNL1        0.1079
     31 C          68.3564   93.6584   15.0164 C.ar    1  UNL1        0.0588
     32 S          66.9004   93.5158   14.6851 S.2     1  UNL1       -0.0497
@<TRIPOS>BOND
     1    21    22    1
     2    22    11    1
     3    11    12   ar
     4    12    13   ar
     5    13    17    1
     6    17    18    1
     7    17    19    1
     8    17    20    1
     9    13    14   ar
    10    14    15   ar
    11    15    16   ar
    12    16     1    1
    13     1     2   ar
    14     2     3   ar
    15     3     4   ar
    16     4     5   ar
    17     5     6   ar
    18     6     7   ar
    19     7    23    1
    20    23    24    2
    21    23    25    2
    22    23    26    1
    23    26    28    1
    24    28    29   ar
    25    29    30   ar
    26    30    31   ar
    27    31    32   ar
    28     7     8   ar
    29     8     9   ar
    30     9    10   ar
    31    16    11   ar
    32    10     1   ar
    33    10     5   ar
    34    32    28   ar
    35    26    27    1
@<TRIPOS>MOLECULE
*****
 32 35 0 0 0
SMALL
GASTEIGER

@<TRIPOS>ATOM
      1 C          63.0505   85.3473   12.7480 C.ar    1  UNL1        0.0874
      2 N          63.0021   84.1309   13.6243 N.ar    1  UNL1       -0.2239
      3 C          63.3339   84.2435   15.0827 C.ar    1  UNL1        0.1988
      4 N          63.7141   85.5726   15.6649 N.ar    1  UNL1       -0.2239
      5 C          63.7626   86.7891   14.7887 C.ar    1  UNL1        0.0858
      6 C          64.1428   88.1181   15.3709 C.ar    1  UNL1        0.0394
      7 C          64.1912   89.3346   14.4946 C.ar    1  UNL1        0.1267
      8 C          63.8594   89.2220   13.0360 C.ar    1  UNL1        0.0203
      9 C          63.4792   87.8929   12.4538 C.ar    1  UNL1        0.0044
     10 C          63.4308   86.6764   13.3302 C.ar    1  UNL1        0.0356
     11 C          63.4649   84.2636   10.4234 C.ar    1  UNL1        0.1400
     12 C          63.1332   84.1510    8.9649 C.ar    1  UNL1        0.0408
     13 C          62.0551   85.0095    8.3724 C.ar    1  UNL1        0.0744
     14 C          61.3089   85.9806    9.2385 C.ar    1  UNL1        0.0041
     15 C          61.6407   86.0932   10.6971 C.ar    1  UNL1        0.0045
     16 C          62.7187   85.2347   11.2895 C.ar    1  UNL1        0.0517
     17 C          61.7234   84.8968    6.9140 C.3     1  UNL1        0.4187
     18 F          61.3916   84.7842    5.4555 F       1  UNL1       -0.1659
     19 F          63.1354   84.4814    6.6248 F       1  UNL1       -0.1659
     20 F          60.3114   85.3123    7.2031 F       1  UNL1       -0.1659
     21 C          64.2602   81.9705   11.3503 C.3     1  UNL1        0.2525
     22 O          64.5429   83.4051   11.0158 O.3     1  UNL1       -0.4714
     23 S          64.5714   90.6637   15.0768 S.O2    1  UNL1        0.0751
     24 O          65.5736   90.8584   13.9778 O.2     1  UNL1       -0.1499
     25 O          63.5693   90.4689   16.1758 O.2     1  UNL1       -0.1499
     26 N          64.9517   91.9928   15.6590 N.pl3   1  UNL1       -0.1937
     27 H          64.2663   92.5592   16.0817 H       1  UNL1        0.1758
     28 C          66.3762   92.4588   15.5971 C.ar    1  UNL1        0.1786
     29 N          67.4984   91.9824   16.4710 N.ar    1  UNL1       -0.2214
     30 C          68.7443   92.7122   16.0645 C.ar    1  UNL1        0.1079
     31 C          68.3920   93.6396   14.9393 C.ar    1  UNL1        0.0588
     32 S          66.9284   93.4830   14.6505 S.2     1  UNL1       -0.0497
@<TRIPOS>BOND
     1    21    22    1
     2    22    11    1
     3    11    12   ar
     4    12    13   ar
     5    13    17    1
     6    17    18    1
     7    17    19    1
     8    17    20    1
     9    13    14   ar
    10    14    15   ar
    11    15    16   ar
    12    16     1    1
    13     1     2   ar
    14     2     3   ar
    15     3     4   ar
    16     4     5   ar
    17     5     6   ar
    18     6     7   ar
    19     7    23    1
    20    23    24    2
    21    23    25    2
    22    23    26    1
    23    26    28    1
    24    28    29   ar
    25    29    30   ar
    26    30    31   ar
    27    31    32   ar
    28     7     8   ar
    29     8     9   ar
    30     9    10   ar
    31    16    11   ar
    32    10     1   ar
    33    10     5   ar
    34    32    28   ar
    35    26    27    1
@<TRIPOS>MOLECULE
*****
 32 35 0 0 0
SMALL
GASTEIGER

@<TRIPOS>ATOM
      1 C          63.1398   85.0216   11.6693 C.ar    1  UNL1        0.0874
      2 N          64.0721   83.9639   11.1574 N.ar    1  UNL1       -0.2239
      3 C          64.0927   83.6257    9.6962 C.ar    1  UNL1        0.1988
      4 N          63.1810   84.3452    8.7469 N.ar    1  UNL1       -0.2239
      5 C          62.2487   85.4029    9.2588 C.ar    1  UNL1        0.0858
      6 C          61.3370   86.1224    8.3095 C.ar    1  UNL1        0.0394
      7 C          60.4047   87.1801    8.8214 C.ar    1  UNL1        0.1267
      8 C          60.3841   87.5183   10.2827 C.ar    1  UNL1        0.0203
      9 C          61.2958   86.7989   11.2320 C.ar    1  UNL1        0.0044
     10 C          62.2281   85.7411   10.7200 C.ar    1  UNL1        0.0356
     11 C          62.5304   84.3941   14.1158 C.ar    1  UNL1        0.1400
     12 C          62.5098   84.7324   15.5769 C.ar    1  UNL1        0.0408
     13 C          63.0780   86.0365   16.0530 C.ar    1  UNL1        0.0744
     14 C          63.6668   87.0023   15.0679 C.ar    1  UNL1        0.0041
     15 C          63.6874   86.6640   13.6066 C.ar    1  UNL1        0.0045
     16 C          63.1192   85.3599   13.1306 C.ar    1  UNL1        0.0517
     17 C          63.0574   86.3747   17.5142 C.3     1  UNL1        0.4187
     18 F          63.0367   86.7129   18.9754 F       1  UNL1       -0.1659
     19 F          63.4520   87.7857   17.1932 F       1  UNL1       -0.1659
     20 F          62.6627   84.9636   17.8353 F       1  UNL1       -0.1659
     21 C          62.7154   81.8140   13.8731 C.3     1  UNL1        0.2525
     22 O          61.9622   83.0900   13.6397 O.3     1  UNL1       -0.4714
     23 S          59.4930   87.8995    7.8721 S.O2    1  UNL1        0.0751
     24 O          59.7702   89.1903    8.5842 O.2     1  UNL1       -0.1499
     25 O          59.2159   86.6088    7.1600 O.2     1  UNL1       -0.1499
     26 N          58.5813   88.6190    6.9228 N.pl3   1  UNL1       -0.1937
     27 H          57.6413   88.3395    6.8359 H       1  UNL1        0.1758
     28 C          59.1018   89.7644    6.1060 C.ar    1  UNL1        0.1786
     29 N          60.5274   89.9741    5.6894 N.ar    1  UNL1       -0.2214
     30 C          60.5947   91.2405    4.8882 C.ar    1  UNL1        0.1079
     31 C          59.2106   91.8135    4.8097 C.ar    1  UNL1        0.0588
     32 S          58.2880   90.9012    5.5623 S.2     1  UNL1       -0.0497
@<TRIPOS>BOND
     1    21    22    1
     2    22    11    1
     3    11    12   ar
     4    12    13   ar
     5    13    17    1
     6    17    18    1
     7    17    19    1
     8    17    20    1
     9    13    14   ar
    10    14    15   ar
    11    15    16   ar
    12    16     1    1
    13     1     2   ar
    14     2     3   ar
    15     3     4   ar
    16     4     5   ar
    17     5     6   ar
    18     6     7   ar
    19     7    23    1
    20    23    24    2
    21    23    25    2
    22    23    26    1
    23    26    28    1
    24    28    29   ar
    25    29    30   ar
    26    30    31   ar
    27    31    32   ar
    28     7     8   ar
    29     8     9   ar
    30     9    10   ar
    31    16    11   ar
    32    10     1   ar
    33    10     5   ar
    34    32    28   ar
    35    26    27    1
@<TRIPOS>MOLECULE
*****
 32 35 0 0 0
SMALL
GASTEIGER

@<TRIPOS>ATOM
      1 C          62.9985   85.5140   15.2199 C.ar    1  UNL1        0.0874
      2 N          62.4051   85.1272   16.5421 N.ar    1  UNL1       -0.2239
      3 C          62.2851   86.1455   17.6369 C.ar    1  UNL1        0.1988
      4 N          62.7585   87.5506   17.4095 N.ar    1  UNL1       -0.2239
      5 C          63.3519   87.9373   16.0874 C.ar    1  UNL1        0.0858
      6 C          63.8253   89.3424   15.8600 C.ar    1  UNL1        0.0394
      7 C          64.4187   89.7291   14.5378 C.ar    1  UNL1        0.1267
      8 C          64.5388   88.7108   13.4429 C.ar    1  UNL1        0.0203
      9 C          64.0654   87.3058   13.6703 C.ar    1  UNL1        0.0044
     10 C          63.4719   86.9190   14.9926 C.ar    1  UNL1        0.0356
     11 C          62.4692   84.7436   12.7958 C.ar    1  UNL1        0.1400
     12 C          62.5893   83.7254   11.7009 C.ar    1  UNL1        0.0408
     13 C          63.3586   82.4591   11.9353 C.ar    1  UNL1        0.0744
     14 C          64.0079   82.2112   13.2645 C.ar    1  UNL1        0.0041
     15 C          63.8878   83.2295   14.3594 C.ar    1  UNL1        0.0045
     16 C          63.1185   84.4957   14.1250 C.ar    1  UNL1        0.0517
     17 C          63.4786   81.4409   10.8404 C.3     1  UNL1        0.4187
     18 F          63.5986   80.4227    9.7455 F       1  UNL1       -0.1659
     19 F          62.7160   80.4545   11.6742 F       1  UNL1       -0.1659
     20 F          64.2412   82.4274   10.0066 F       1  UNL1       -0.1659
     21 C          61.3047   86.4003   11.1681 C.3     1  UNL1        0.2525
     22 O          61.6999   86.0099   12.5614 O.3     1  UNL1       -0.4714
     23 S          64.8922   91.1342   14.3104 S.O2    1  UNL1        0.0751
     24 O          66.2991   90.7085   14.6091 O.2     1  UNL1       -0.1499
     25 O          63.4852   91.5599   14.0118 O.2     1  UNL1       -0.1499
     26 N          65.3656   92.5393   14.0831 N.pl3   1  UNL1       -0.1937
     27 H          65.4343   93.1642   14.8406 H       1  UNL1        0.1758
     28 C          65.7343   92.9921   12.7014 C.ar    1  UNL1        0.1786
     29 N          66.4952   94.2376   12.3554 N.ar    1  UNL1       -0.2214
     30 C          66.6380   94.2942   10.8633 C.ar    1  UNL1        0.1079
     31 C          65.9655   93.0835   10.2870 C.ar    1  UNL1        0.0588
     32 S          65.4070   92.2788   11.4230 S.2     1  UNL1       -0.0497
@<TRIPOS>BOND
     1    21    22    1
     2    22    11    1
     3    11    12   ar
     4    12    13   ar
     5    13    17    1
     6    17    18    1
     7    17    19    1
     8    17    20    1
     9    13    14   ar
    10    14    15   ar
    11    15    16   ar
    12    16     1    1
    13     1     2   ar
    14     2     3   ar
    15     3     4   ar
    16     4     5   ar
    17     5     6   ar
    18     6     7   ar
    19     7    23    1
    20    23    24    2
    21    23    25    2
    22    23    26    1
    23    26    28    1
    24    28    29   ar
    25    29    30   ar
    26    30    31   ar
    27    31    32   ar
    28     7     8   ar
    29     8     9   ar
    30     9    10   ar
    31    16    11   ar
    32    10     1   ar
    33    10     5   ar
    34    32    28   ar
    35    26    27    1
@<TRIPOS>MOLECULE
*****
 32 35 0 0 0
SMALL
GASTEIGER

@<TRIPOS>ATOM
      1 C          61.6223   87.2595   10.6465 C.ar    1  UNL1        0.0874
      2 N          60.4444   87.3125    9.7194 N.ar    1  UNL1       -0.2239
      3 C          60.0054   88.6241    9.1389 C.ar    1  UNL1        0.1988
      4 N          60.7443   89.8826    9.4855 N.ar    1  UNL1       -0.2239
      5 C          61.9222   89.8295   10.4126 C.ar    1  UNL1        0.0858
      6 C          62.6612   91.0881   10.7592 C.ar    1  UNL1        0.0394
      7 C          63.8391   91.0350   11.6863 C.ar    1  UNL1        0.1267
      8 C          64.2782   89.7234   12.2669 C.ar    1  UNL1        0.0203
      9 C          63.5393   88.4649   11.9203 C.ar    1  UNL1        0.0044
     10 C          62.3613   88.5180   10.9931 C.ar    1  UNL1        0.0356
     11 C          62.8185   84.9686   10.3798 C.ar    1  UNL1        0.1400
     12 C          63.2576   83.6570   10.9603 C.ar    1  UNL1        0.0408
     13 C          62.9396   83.3247   12.3881 C.ar    1  UNL1        0.0744
     14 C          62.1825   84.3040   13.2353 C.ar    1  UNL1        0.0041
     15 C          61.7434   85.6156   12.6548 C.ar    1  UNL1        0.0045
     16 C          62.0614   85.9479   11.2271 C.ar    1  UNL1        0.0517
     17 C          63.3787   82.0132   12.9686 C.3     1  UNL1        0.4187
     18 F          63.8178   80.7016   13.5491 F       1  UNL1       -0.1659
     19 F          62.8651   81.3026   11.7516 F       1  UNL1       -0.1659
     20 F          63.8923   82.7238   14.1856 F       1  UNL1       -0.1659
     21 C          62.1811   84.9157    7.8617 C.3     1  UNL1        0.2525
     22 O          63.1365   85.3009    8.9520 O.3     1  UNL1       -0.4714
     23 S          64.5780   92.2935   12.0330 S.O2    1  UNL1        0.0751
     24 O          64.6901   91.8355   13.4569 O.2     1  UNL1       -0.1499
     25 O          64.4659   92.7515   10.6090 O.2     1  UNL1       -0.1499
     26 N          65.3169   93.5520   12.3796 N.pl3   1  UNL1       -0.1937
     27 H          65.2662   93.9171   13.2925 H       1  UNL1        0.1758
     28 C          66.1331   94.2544   11.3352 C.ar    1  UNL1        0.1786
     29 N          67.1915   93.6292   10.4755 N.ar    1  UNL1       -0.2214
     30 C          67.7467   94.6936    9.5762 C.ar    1  UNL1        0.1079
     31 C          67.0314   95.9767    9.8801 C.ar    1  UNL1        0.0588
     32 S          66.0342   95.7052   10.9672 S.2     1  UNL1       -0.0497
@<TRIPOS>BOND
     1    21    22    1
     2    22    11    1
     3    11    12   ar
     4    12    13   ar
     5    13    17    1
     6    17    18    1
     7    17    19    1
     8    17    20    1
     9    13    14   ar
    10    14    15   ar
    11    15    16   ar
    12    16     1    1
    13     1     2   ar
    14     2     3   ar
    15     3     4   ar
    16     4     5   ar
    17     5     6   ar
    18     6     7   ar
    19     7    23    1
    20    23    24    2
    21    23    25    2
    22    23    26    1
    23    26    28    1
    24    28    29   ar
    25    29    30   ar
    26    30    31   ar
    27    31    32   ar
    28     7     8   ar
    29     8     9   ar
    30     9    10   ar
    31    16    11   ar
    32    10     1   ar
    33    10     5   ar
    34    32    28   ar
    35    26    27    1
@<TRIPOS>MOLECULE
*****
 32 35 0 0 0
SMALL
GASTEIGER

@<TRIPOS>ATOM
      1 C          63.0727   85.1259   11.7848 C.ar    1  UNL1        0.0874
      2 N          64.0195   84.0731   11.2895 N.ar    1  UNL1       -0.2239
      3 C          64.0594   83.7269    9.8306 C.ar    1  UNL1        0.1988
      4 N          63.1526   84.4334    8.8670 N.ar    1  UNL1       -0.2239
      5 C          62.2058   85.4861    9.3623 C.ar    1  UNL1        0.0858
      6 C          61.2990   86.1926    8.3987 C.ar    1  UNL1        0.0394
      7 C          60.3522   87.2454    8.8940 C.ar    1  UNL1        0.1267
      8 C          60.3123   87.5916   10.3530 C.ar    1  UNL1        0.0203
      9 C          61.2191   86.8851   11.3166 C.ar    1  UNL1        0.0044
     10 C          62.1659   85.8324   10.8212 C.ar    1  UNL1        0.0356
     11 C          63.4242   86.8466   13.6994 C.ar    1  UNL1        0.1400
     12 C          63.3843   87.1929   15.1583 C.ar    1  UNL1        0.0408
     13 C          62.9528   86.1647   16.1617 C.ar    1  UNL1        0.0744
     14 C          62.5614   84.7902   15.7061 C.ar    1  UNL1        0.0041
     15 C          62.6014   84.4439   14.2471 C.ar    1  UNL1        0.0045
     16 C          63.0328   85.4721   13.2438 C.ar    1  UNL1        0.0517
     17 C          62.9129   86.5109   17.6206 C.3     1  UNL1        0.4187
     18 F          62.8729   86.8572   19.0795 F       1  UNL1       -0.1659
     19 F          62.4031   85.1353   17.9332 F       1  UNL1       -0.1659
     20 F          63.4227   87.8866   17.3081 F       1  UNL1       -0.1659
     21 C          63.4543   89.3093   12.8723 C.3     1  UNL1        0.2525
     22 O          63.8556   87.8748   12.6960 O.3     1  UNL1       -0.4714
     23 S          59.4454   87.9519    7.9305 S.O2    1  UNL1        0.0751
     24 O          59.8476   89.2714    8.5194 O.2     1  UNL1       -0.1499
     25 O          59.0432   86.6323    7.3415 O.2     1  UNL1       -0.1499
     26 N          58.5386   88.6584    6.9669 N.pl3   1  UNL1       -0.1937
     27 H          57.5967   88.3836    6.8855 H       1  UNL1        0.1758
     28 C          59.0668   89.7835    6.1271 C.ar    1  UNL1        0.1786
     29 N          60.4886   89.9598    5.6828 N.ar    1  UNL1       -0.2214
     30 C          60.5665   91.2151    4.8654 C.ar    1  UNL1        0.1079
     31 C          59.1929   91.8147    4.8046 C.ar    1  UNL1        0.0588
     32 S          58.2660   90.9299    5.5844 S.2     1  UNL1       -0.0497
@<TRIPOS>BOND
     1    21    22    1
     2    22    11    1
     3    11    12   ar
     4    12    13   ar
     5    13    17    1
     6    17    18    1
     7    17    19    1
     8    17    20    1
     9    13    14   ar
    10    14    15   ar
    11    15    16   ar
    12    16     1    1
    13     1     2   ar
    14     2     3   ar
    15     3     4   ar
    16     4     5   ar
    17     5     6   ar
    18     6     7   ar
    19     7    23    1
    20    23    24    2
    21    23    25    2
    22    23    26    1
    23    26    28    1
    24    28    29   ar
    25    29    30   ar
    26    30    31   ar
    27    31    32   ar
    28     7     8   ar
    29     8     9   ar
    30     9    10   ar
    31    16    11   ar
    32    10     1   ar
    33    10     5   ar
    34    32    28   ar
    35    26    27    1
