@<TRIPOS>MOLECULE
*****
 28 30 0 0 0
SMALL
GASTEIGER

@<TRIPOS>ATOM
      1 C          62.9053   89.0908   12.1219 C.2     1  UNL1        0.0731
      2 C          63.6766   89.5153   13.3363 C.2     1  UNL1        0.0512
      3 N          64.2164   88.4826   14.2809 N.pl3   1  UNL1       -0.3174
      4 C          63.9848   87.0254   14.0111 C.2     1  UNL1        0.0317
      5 C          64.5245   85.9927   14.9557 C.3     1  UNL1        0.0475
      6 C          63.2135   86.6009   12.7967 C.2     1  UNL1        0.0635
      7 C          62.6737   87.6336   11.8521 C.3     1  UNL1        0.0855
      8 H          64.7226   88.7613   15.0780 H       1  UNL1        0.1517
      9 C          61.9024   87.2090   10.6377 C.ar    1  UNL1       -0.0026
     10 C          62.6103   86.5457    9.4936 C.ar    1  UNL1       -0.0005
     11 C          61.8390   86.1212    8.2792 C.ar    1  UNL1        0.0294
     12 C          60.3597   86.3598    8.2088 C.ar    1  UNL1        0.1410
     13 F          59.5885   85.9352    6.9944 F       1  UNL1       -0.2041
     14 C          59.6518   87.0231    9.3529 C.ar    1  UNL1        0.0407
     15 C          60.4232   87.4477   10.5674 C.ar    1  UNL1        0.0566
     16 CL         59.7153   88.1109   11.7115 Cl      1  UNL1       -0.0825
     17 C          62.3656   90.1235   11.1774 C.2     1  UNL1        0.3389
     18 O          61.0003   90.7033   11.4004 O.2     1  UNL1       -0.2452
     19 C          63.8214   91.9376   10.0200 C.3     1  UNL1        0.2559
     20 O          63.1911   90.5764   10.0098 O.3     1  UNL1       -0.4415
     21 C          62.9819   85.1436   12.5268 C.1     1  UNL1        0.0976
     22 N          62.7502   83.6864   12.2570 N.1     1  UNL1       -0.1911
     23 C          63.9082   90.9726   13.6062 C.3     1  UNL1        0.1486
     24 N          65.3057   91.5169   13.6367 N.ar    1  UNL1       -0.3023
     25 C          66.3608   91.1811   14.6486 C.ar    1  UNL1        0.0983
     26 C          67.6005   91.9492   14.2979 C.ar    1  UNL1        0.1193
     27 N          67.3116   92.7597   13.0691 N.ar    1  UNL1       -0.2223
     28 C          65.8933   92.4925   12.6605 C.ar    1  UNL1        0.1789
@<TRIPOS>BOND
     1    19    20    1
     2    20    17    1
     3    17    18    2
     4    17     1    1
     5     1     2    2
     6     2    23    1
     7    23    24    1
     8    24    25   ar
     9    25    26   ar
    10    26    27   ar
    11    27    28   ar
    12     2     3    1
    13     3     4    1
    14     4     5    1
    15     4     6    2
    16     6    21    1
    17    21    22    3
    18     6     7    1
    19     7     9    1
    20     9    10   ar
    21    10    11   ar
    22    11    12   ar
    23    12    13    1
    24    12    14   ar
    25    14    15   ar
    26    15    16    1
    27     7     1    1
    28    15     9   ar
    29    28    24   ar
    30     3     8    1
@<TRIPOS>MOLECULE
*****
 28 30 0 0 0
SMALL
GASTEIGER

@<TRIPOS>ATOM
      1 C          65.2460   91.3134   13.3520 C.2     1  UNL1        0.0731
      2 C          65.4467   92.3202   12.2584 C.2     1  UNL1        0.0512
      3 N          64.5821   92.2792   11.0333 N.pl3   1  UNL1       -0.3174
      4 C          63.5169   91.2314   10.9018 C.2     1  UNL1        0.0317
      5 C          62.6524   91.1903    9.6767 C.3     1  UNL1        0.0475
      6 C          63.3163   90.2245   11.9954 C.2     1  UNL1        0.0635
      7 C          64.1808   90.2656   13.2205 C.3     1  UNL1        0.0855
      8 H          64.7138   92.9400   10.3155 H       1  UNL1        0.1517
      9 C          63.9801   89.2587   14.3141 C.ar    1  UNL1       -0.0026
     10 C          64.3336   87.8194   14.0825 C.ar    1  UNL1       -0.0005
     11 C          64.1329   86.8125   15.1761 C.ar    1  UNL1        0.0294
     12 C          63.5788   87.2449   16.5013 C.ar    1  UNL1        0.1410
     13 F          63.3781   86.2380   17.5948 F       1  UNL1       -0.2041
     14 C          63.2253   88.6841   16.7328 C.ar    1  UNL1        0.0407
     15 C          63.4260   89.6910   15.6392 C.ar    1  UNL1        0.0566
     16 CL         63.0725   91.1303   15.8708 Cl      1  UNL1       -0.0825
     17 C          66.1106   91.3544   14.5771 C.2     1  UNL1        0.3389
     18 O          67.1249   90.2755   14.8156 O.2     1  UNL1       -0.2452
     19 C          67.1782   93.1167   16.1596 C.3     1  UNL1        0.2559
     20 O          65.9608   92.4744   15.5636 O.3     1  UNL1       -0.4415
     21 C          62.2510   89.1766   11.8639 C.1     1  UNL1        0.0976
     22 N          61.1859   88.1287   11.7324 N.1     1  UNL1       -0.1911
     23 C          66.5119   93.3682   12.3898 C.3     1  UNL1        0.1486
     24 N          66.6757   94.4091   11.3224 N.ar    1  UNL1       -0.3023
     25 C          67.3569   94.2163   10.0000 C.ar    1  UNL1        0.0983
     26 C          67.2892   95.5137    9.2502 C.ar    1  UNL1        0.1193
     27 N          66.5662   96.5085   10.1093 N.ar    1  UNL1       -0.2223
     28 C          66.1871   95.8257   11.3899 C.ar    1  UNL1        0.1789
@<TRIPOS>BOND
     1    19    20    1
     2    20    17    1
     3    17    18    2
     4    17     1    1
     5     1     2    2
     6     2    23    1
     7    23    24    1
     8    24    25   ar
     9    25    26   ar
    10    26    27   ar
    11    27    28   ar
    12     2     3    1
    13     3     4    1
    14     4     5    1
    15     4     6    2
    16     6    21    1
    17    21    22    3
    18     6     7    1
    19     7     9    1
    20     9    10   ar
    21    10    11   ar
    22    11    12   ar
    23    12    13    1
    24    12    14   ar
    25    14    15   ar
    26    15    16    1
    27     7     1    1
    28    15     9   ar
    29    28    24   ar
    30     3     8    1
@<TRIPOS>MOLECULE
*****
 28 30 0 0 0
SMALL
GASTEIGER

@<TRIPOS>ATOM
      1 C          63.7603   85.9805   13.5206 C.2     1  UNL1        0.0731
      2 C          63.8573   87.4660   13.7044 C.2     1  UNL1        0.0512
      3 N          63.2429   88.3885   12.6937 N.pl3   1  UNL1       -0.3174
      4 C          62.5315   87.8255   11.4992 C.2     1  UNL1        0.0317
      5 C          61.9172   88.7479   10.4884 C.3     1  UNL1        0.0475
      6 C          62.4345   86.3400   11.3154 C.2     1  UNL1        0.0635
      7 C          63.0489   85.4175   12.3261 C.3     1  UNL1        0.0855
      8 H          63.3066   89.3635   12.8143 H       1  UNL1        0.1517
      9 C          62.9519   83.9319   12.1423 C.ar    1  UNL1       -0.0026
     10 C          62.1787   83.1035   13.1252 C.ar    1  UNL1       -0.0005
     11 C          62.0816   81.6180   12.9414 C.ar    1  UNL1        0.0294
     12 C          62.7578   80.9608   11.7747 C.ar    1  UNL1        0.1410
     13 F          62.6607   79.4753   11.5910 F       1  UNL1       -0.2041
     14 C          63.5309   81.7892   10.7919 C.ar    1  UNL1        0.0407
     15 C          63.6280   83.2748   10.9757 C.ar    1  UNL1        0.0566
     16 CL         64.4012   84.1032    9.9929 Cl      1  UNL1       -0.0825
     17 C          64.3746   85.0580   14.5314 C.2     1  UNL1        0.3389
     18 O          65.5793   84.2418   14.1673 O.2     1  UNL1       -0.2452
     19 C          62.2953   84.9664   16.0863 C.3     1  UNL1        0.2559
     20 O          63.7844   84.9518   15.9062 O.3     1  UNL1       -0.4415
     21 C          61.7231   85.7769   10.1208 C.1     1  UNL1        0.0976
     22 N          61.0118   85.2138    8.9263 N.1     1  UNL1       -0.1911
     23 C          64.5687   88.0291   14.8990 C.3     1  UNL1        0.1486
     24 N          64.3624   89.4631   15.2877 N.ar    1  UNL1       -0.3023
     25 C          65.1419   90.6369   14.7734 C.ar    1  UNL1        0.0983
     26 C          64.6016   91.8743   15.4268 C.ar    1  UNL1        0.1193
     27 N          63.4881   91.4653   16.3449 N.ar    1  UNL1       -0.2223
     28 C          63.3403   89.9750   16.2589 C.ar    1  UNL1        0.1789
@<TRIPOS>BOND
     1    19    20    1
     2    20    17    1
     3    17    18    2
     4    17     1    1
     5     1     2    2
     6     2    23    1
     7    23    24    1
     8    24    25   ar
     9    25    26   ar
    10    26    27   ar
    11    27    28   ar
    12     2     3    1
    13     3     4    1
    14     4     5    1
    15     4     6    2
    16     6    21    1
    17    21    22    3
    18     6     7    1
    19     7     9    1
    20     9    10   ar
    21    10    11   ar
    22    11    12   ar
    23    12    13    1
    24    12    14   ar
    25    14    15   ar
    26    15    16    1
    27     7     1    1
    28    15     9   ar
    29    28    24   ar
    30     3     8    1
@<TRIPOS>MOLECULE
*****
 28 30 0 0 0
SMALL
GASTEIGER

@<TRIPOS>ATOM
      1 C          62.7680   85.5922   11.5561 C.2     1  UNL1        0.0731
      2 C          62.8543   85.2147   10.1070 C.2     1  UNL1        0.0512
      3 N          63.1698   83.8009    9.7177 N.pl3   1  UNL1       -0.3174
      4 C          63.3989   82.7645   10.7776 C.2     1  UNL1        0.0317
      5 C          63.7143   81.3506   10.3883 C.3     1  UNL1        0.0475
      6 C          63.3125   83.1419   12.2267 C.2     1  UNL1        0.0635
      7 C          62.9971   84.5558   12.6160 C.3     1  UNL1        0.0855
      8 H          63.2264   83.5532    8.7666 H       1  UNL1        0.1517
      9 C          62.9108   84.9332   14.0652 C.ar    1  UNL1       -0.0026
     10 C          61.5824   84.9348   14.7619 C.ar    1  UNL1       -0.0005
     11 C          61.4960   85.3122   16.2111 C.ar    1  UNL1        0.0294
     12 C          62.7381   85.6880   16.9636 C.ar    1  UNL1        0.1410
     13 F          62.6517   86.0654   18.4127 F       1  UNL1       -0.2041
     14 C          64.0664   85.6863   16.2669 C.ar    1  UNL1        0.0407
     15 C          64.1528   85.3089   14.8176 C.ar    1  UNL1        0.0566
     16 CL         65.4811   85.3072   14.1209 Cl      1  UNL1       -0.0825
     17 C          62.4525   87.0060   11.9454 C.2     1  UNL1        0.3389
     18 O          61.0728   87.5533   11.7294 O.2     1  UNL1       -0.2452
     19 C          63.3483   89.3629   12.5721 C.3     1  UNL1        0.2559
     20 O          63.5168   87.8725   12.5507 O.3     1  UNL1       -0.4415
     21 C          63.5417   82.1055   13.2866 C.1     1  UNL1        0.0976
     22 N          63.7708   81.0692   14.3466 N.1     1  UNL1       -0.1911
     23 C          62.6252   86.2511    9.0470 C.3     1  UNL1        0.1486
     24 N          61.2546   86.4417    8.4683 N.ar    1  UNL1       -0.3023
     25 C          60.3301   87.5888    8.7505 C.ar    1  UNL1        0.0983
     26 C          59.0719   87.3747    7.9623 C.ar    1  UNL1        0.1193
     27 N          59.2188   86.0954    7.1930 N.ar    1  UNL1       -0.2223
     28 C          60.5678   85.5188    7.5057 C.ar    1  UNL1        0.1789
@<TRIPOS>BOND
     1    19    20    1
     2    20    17    1
     3    17    18    2
     4    17     1    1
     5     1     2    2
     6     2    23    1
     7    23    24    1
     8    24    25   ar
     9    25    26   ar
    10    26    27   ar
    11    27    28   ar
    12     2     3    1
    13     3     4    1
    14     4     5    1
    15     4     6    2
    16     6    21    1
    17    21    22    3
    18     6     7    1
    19     7     9    1
    20     9    10   ar
    21    10    11   ar
    22    11    12   ar
    23    12    13    1
    24    12    14   ar
    25    14    15   ar
    26    15    16    1
    27     7     1    1
    28    15     9   ar
    29    28    24   ar
    30     3     8    1
@<TRIPOS>MOLECULE
*****
 28 30 0 0 0
SMALL
GASTEIGER

@<TRIPOS>ATOM
      1 C          63.9606   86.9994   13.9135 C.2     1  UNL1        0.0731
      2 C          63.9334   88.4888   13.7373 C.2     1  UNL1        0.0512
      3 N          63.2638   89.0899   12.5372 N.pl3   1  UNL1       -0.3174
      4 C          62.6213   88.2017   11.5133 C.2     1  UNL1        0.0317
      5 C          61.9517   88.8029   10.3132 C.3     1  UNL1        0.0475
      6 C          62.6485   86.7124   11.6895 C.2     1  UNL1        0.0635
      7 C          63.3181   86.1112   12.8896 C.3     1  UNL1        0.0855
      8 H          63.2459   90.0674   12.4215 H       1  UNL1        0.1517
      9 C          63.3453   84.6218   13.0658 C.ar    1  UNL1       -0.0026
     10 C          64.2825   83.7865   12.2450 C.ar    1  UNL1       -0.0005
     11 C          64.3097   82.2971   12.4211 C.ar    1  UNL1        0.0294
     12 C          63.3997   81.6431   13.4182 C.ar    1  UNL1        0.1410
     13 F          63.4269   80.1537   13.5943 F       1  UNL1       -0.2041
     14 C          62.4624   82.4784   14.2390 C.ar    1  UNL1        0.0407
     15 C          62.4353   83.9678   14.0628 C.ar    1  UNL1        0.0566
     16 CL         61.4980   84.8032   14.8837 Cl      1  UNL1       -0.0825
     17 C          64.6302   86.3983   15.1136 C.2     1  UNL1        0.3389
     18 O          66.0855   86.0391   15.0590 O.2     1  UNL1       -0.2452
     19 C          63.0601   87.2739   16.9892 C.3     1  UNL1        0.2559
     20 O          63.8446   86.1563   16.3682 O.3     1  UNL1       -0.4415
     21 C          62.0060   85.8241   10.6657 C.1     1  UNL1        0.0976
     22 N          61.3636   84.9358    9.6419 N.1     1  UNL1       -0.1911
     23 C          64.5759   89.3770   14.7611 C.3     1  UNL1        0.1486
     24 N          65.0967   90.7261   14.3627 N.ar    1  UNL1       -0.3023
     25 C          66.0767   91.5567   15.1372 C.ar    1  UNL1        0.0983
     26 C          66.3147   92.8253   14.3730 C.ar    1  UNL1        0.1193
     27 N          65.4819   92.7788   13.1263 N.ar    1  UNL1       -0.2223
     28 C          64.7292   91.4813   13.1199 C.ar    1  UNL1        0.1789
@<TRIPOS>BOND
     1    19    20    1
     2    20    17    1
     3    17    18    2
     4    17     1    1
     5     1     2    2
     6     2    23    1
     7    23    24    1
     8    24    25   ar
     9    25    26   ar
    10    26    27   ar
    11    27    28   ar
    12     2     3    1
    13     3     4    1
    14     4     5    1
    15     4     6    2
    16     6    21    1
    17    21    22    3
    18     6     7    1
    19     7     9    1
    20     9    10   ar
    21    10    11   ar
    22    11    12   ar
    23    12    13    1
    24    12    14   ar
    25    14    15   ar
    26    15    16    1
    27     7     1    1
    28    15     9   ar
    29    28    24   ar
    30     3     8    1
@<TRIPOS>MOLECULE
*****
 28 30 0 0 0
SMALL
GASTEIGER

@<TRIPOS>ATOM
      1 C          63.2203   87.0140   12.6364 C.2     1  UNL1        0.0731
      2 C          63.9771   87.6249   13.7782 C.2     1  UNL1        0.0512
      3 N          64.2671   89.0966   13.7838 N.pl3   1  UNL1       -0.3174
      4 C          63.8002   89.9574   12.6476 C.2     1  UNL1        0.0317
      5 C          64.0901   91.4291   12.6532 C.3     1  UNL1        0.0475
      6 C          63.0433   89.3464   11.5057 C.2     1  UNL1        0.0635
      7 C          62.7534   87.8747   11.5001 C.3     1  UNL1        0.0855
      8 H          64.7638   89.4976   14.5333 H       1  UNL1        0.1517
      9 C          61.9965   87.2638   10.3582 C.ar    1  UNL1       -0.0026
     10 C          62.7272   86.4828    9.3065 C.ar    1  UNL1       -0.0005
     11 C          61.9704   85.8719    8.1646 C.ar    1  UNL1        0.0294
     12 C          60.4828   86.0419    8.0744 C.ar    1  UNL1        0.1410
     13 F          59.7260   85.4310    6.9325 F       1  UNL1       -0.2041
     14 C          59.7520   86.8229    9.1261 C.ar    1  UNL1        0.0407
     15 C          60.5089   87.4338   10.2680 C.ar    1  UNL1        0.0566
     16 CL         59.7782   88.2148   11.3197 Cl      1  UNL1       -0.0825
     17 C          62.9303   85.5423   12.6307 C.2     1  UNL1        0.3389
     18 O          61.7754   85.0024   13.4210 O.2     1  UNL1       -0.2452
     19 C          64.2909   83.3362   12.4518 C.3     1  UNL1        0.2559
     20 O          63.7953   84.6105   11.8348 O.3     1  UNL1       -0.4415
     21 C          62.5764   90.2072   10.3694 C.1     1  UNL1        0.0976
     22 N          62.1095   91.0678    9.2331 N.1     1  UNL1       -0.1911
     23 C          64.4441   86.7642   14.9145 C.3     1  UNL1        0.1486
     24 N          63.6194   86.6578   16.1629 N.ar    1  UNL1       -0.3023
     25 C          63.3014   87.7787   17.1077 C.ar    1  UNL1        0.0983
     26 C          62.4534   87.2256   18.2144 C.ar    1  UNL1        0.1193
     27 N          62.2472   85.7628   17.9537 N.ar    1  UNL1       -0.2223
     28 C          62.9678   85.4120   16.6858 C.ar    1  UNL1        0.1789
@<TRIPOS>BOND
     1    19    20    1
     2    20    17    1
     3    17    18    2
     4    17     1    1
     5     1     2    2
     6     2    23    1
     7    23    24    1
     8    24    25   ar
     9    25    26   ar
    10    26    27   ar
    11    27    28   ar
    12     2     3    1
    13     3     4    1
    14     4     5    1
    15     4     6    2
    16     6    21    1
    17    21    22    3
    18     6     7    1
    19     7     9    1
    20     9    10   ar
    21    10    11   ar
    22    11    12   ar
    23    12    13    1
    24    12    14   ar
    25    14    15   ar
    26    15    16    1
    27     7     1    1
    28    15     9   ar
    29    28    24   ar
    30     3     8    1
@<TRIPOS>MOLECULE
*****
 28 30 0 0 0
SMALL
GASTEIGER

@<TRIPOS>ATOM
      1 C          62.7654   86.1165   11.4134 C.2     1  UNL1        0.0731
      2 C          62.8638   87.5568   11.8202 C.2     1  UNL1        0.0512
      3 N          63.4653   87.9227   13.1447 N.pl3   1  UNL1       -0.3174
      4 C          63.9683   86.8482   14.0625 C.2     1  UNL1        0.0317
      5 C          64.5697   87.2140   15.3870 C.3     1  UNL1        0.0475
      6 C          63.8698   85.4078   13.6557 C.2     1  UNL1        0.0635
      7 C          63.2683   85.0419   12.3311 C.3     1  UNL1        0.0855
      8 H          63.5299   88.8681   13.4117 H       1  UNL1        0.1517
      9 C          63.1699   83.6014   11.9244 C.ar    1  UNL1       -0.0026
     10 C          63.8662   83.1228   10.6850 C.ar    1  UNL1       -0.0005
     11 C          63.7678   81.6824   10.2782 C.ar    1  UNL1        0.0294
     12 C          62.9731   80.7205   11.1108 C.ar    1  UNL1        0.1410
     13 F          62.8746   79.2801   10.7040 F       1  UNL1       -0.2041
     14 C          62.2768   81.1991   12.3502 C.ar    1  UNL1        0.0407
     15 C          62.3752   82.6396   12.7570 C.ar    1  UNL1        0.0566
     16 CL         61.6789   83.1182   13.9964 Cl      1  UNL1       -0.0825
     17 C          62.1639   85.7506   10.0888 C.2     1  UNL1        0.3389
     18 O          63.0485   85.3181    8.9573 O.2     1  UNL1       -0.2452
     19 C          60.1078   86.5151    8.6967 C.3     1  UNL1        0.2559
     20 O          60.6779   85.8172    9.8959 O.3     1  UNL1       -0.4415
     21 C          64.3728   84.3331   14.5735 C.1     1  UNL1        0.0976
     22 N          64.8758   83.2586   15.4912 N.1     1  UNL1       -0.1911
     23 C          62.3608   88.6315   10.9024 C.3     1  UNL1        0.1486
     24 N          61.0527   89.3084   11.1862 N.ar    1  UNL1       -0.3023
     25 C          59.8627   88.6834   11.8519 C.ar    1  UNL1        0.0983
     26 C          58.7795   89.7179   11.9312 C.ar    1  UNL1        0.1193
     27 N          59.3000   90.9824   11.3144 N.ar    1  UNL1       -0.2223
     28 C          60.7049   90.7293   10.8540 C.ar    1  UNL1        0.1789
@<TRIPOS>BOND
     1    19    20    1
     2    20    17    1
     3    17    18    2
     4    17     1    1
     5     1     2    2
     6     2    23    1
     7    23    24    1
     8    24    25   ar
     9    25    26   ar
    10    26    27   ar
    11    27    28   ar
    12     2     3    1
    13     3     4    1
    14     4     5    1
    15     4     6    2
    16     6    21    1
    17    21    22    3
    18     6     7    1
    19     7     9    1
    20     9    10   ar
    21    10    11   ar
    22    11    12   ar
    23    12    13    1
    24    12    14   ar
    25    14    15   ar
    26    15    16    1
    27     7     1    1
    28    15     9   ar
    29    28    24   ar
    30     3     8    1
@<TRIPOS>MOLECULE
*****
 28 30 0 0 0
SMALL
GASTEIGER

@<TRIPOS>ATOM
      1 C          62.6125   85.8270   10.9077 C.2     1  UNL1        0.0731
      2 C          63.3279   84.6314   10.3520 C.2     1  UNL1        0.0512
      3 N          63.1083   84.2219    8.9258 N.pl3   1  UNL1       -0.3174
      4 C          62.1733   85.0079    8.0553 C.2     1  UNL1        0.0317
      5 C          61.9538   84.5984    6.6290 C.3     1  UNL1        0.0475
      6 C          61.4579   86.2035    8.6109 C.2     1  UNL1        0.0635
      7 C          61.6775   86.6130   10.0371 C.3     1  UNL1        0.0855
      8 H          63.5779   83.4372    8.5611 H       1  UNL1        0.1517
      9 C          60.9620   87.8086   10.5928 C.ar    1  UNL1       -0.0026
     10 C          59.6576   87.6343   11.3128 C.ar    1  UNL1       -0.0005
     11 C          58.9421   88.8299   11.8684 C.ar    1  UNL1        0.0294
     12 C          59.5310   90.1997   11.7041 C.ar    1  UNL1        0.1410
     13 F          58.8155   91.3952   12.2597 F       1  UNL1       -0.2041
     14 C          60.8353   90.3739   10.9841 C.ar    1  UNL1        0.0407
     15 C          61.5508   89.1783   10.4285 C.ar    1  UNL1        0.0566
     16 CL         62.8551   89.3525    9.7085 Cl      1  UNL1       -0.0825
     17 C          62.8320   86.2365   12.3339 C.2     1  UNL1        0.3389
     18 O          63.4424   87.5707   12.6456 O.2     1  UNL1       -0.2452
     19 C          63.3398   85.1499   14.6386 C.3     1  UNL1        0.2559
     20 O          62.4413   85.3117   13.4484 O.3     1  UNL1       -0.4415
     21 C          60.5228   86.9896    7.7404 C.1     1  UNL1        0.0976
     22 N          59.5878   87.7756    6.8698 N.1     1  UNL1       -0.1911
     23 C          64.2630   83.8454   11.2226 C.3     1  UNL1        0.1486
     24 N          63.7353   82.7276   12.0723 N.ar    1  UNL1       -0.3023
     25 C          62.3824   82.0913   11.9515 C.ar    1  UNL1        0.0983
     26 C          62.2788   81.0202   12.9965 C.ar    1  UNL1        0.1193
     27 N          63.5678   80.9946   13.7633 N.ar    1  UNL1       -0.2223
     28 C          64.4680   82.0498   13.1921 C.ar    1  UNL1        0.1789
@<TRIPOS>BOND
     1    19    20    1
     2    20    17    1
     3    17    18    2
     4    17     1    1
     5     1     2    2
     6     2    23    1
     7    23    24    1
     8    24    25   ar
     9    25    26   ar
    10    26    27   ar
    11    27    28   ar
    12     2     3    1
    13     3     4    1
    14     4     5    1
    15     4     6    2
    16     6    21    1
    17    21    22    3
    18     6     7    1
    19     7     9    1
    20     9    10   ar
    21    10    11   ar
    22    11    12   ar
    23    12    13    1
    24    12    14   ar
    25    14    15   ar
    26    15    16    1
    27     7     1    1
    28    15     9   ar
    29    28    24   ar
    30     3     8    1
@<TRIPOS>MOLECULE
*****
 28 30 0 0 0
SMALL
GASTEIGER

@<TRIPOS>ATOM
      1 C          61.6600   94.5953   -1.8151 C.2     1  UNL1        0.0731
      2 C          63.1386   94.6370   -1.5666 C.2     1  UNL1        0.0512
      3 N          63.6896   94.1941   -0.2436 N.pl3   1  UNL1       -0.3174
      4 C          62.7619   93.7096    0.8309 C.2     1  UNL1        0.0317
      5 C          63.3128   93.2667    2.1539 C.3     1  UNL1        0.0475
      6 C          61.2832   93.6679    0.5824 C.2     1  UNL1        0.0635
      7 C          60.7323   94.1108   -0.7406 C.3     1  UNL1        0.0855
      8 H          64.6601   94.2215   -0.0805 H       1  UNL1        0.1517
      9 C          59.2535   94.0691   -0.9891 C.ar    1  UNL1       -0.0026
     10 C          58.6150   92.8141   -1.5061 C.ar    1  UNL1       -0.0005
     11 C          57.1364   92.7724   -1.7546 C.ar    1  UNL1        0.0294
     12 C          56.2961   93.9857   -1.4861 C.ar    1  UNL1        0.1410
     13 F          54.8175   93.9440   -1.7346 F       1  UNL1       -0.2041
     14 C          56.9347   95.2407   -0.9691 C.ar    1  UNL1        0.0407
     15 C          58.4134   95.2824   -0.7207 C.ar    1  UNL1        0.0566
     16 CL         59.0520   96.5374   -0.2037 Cl      1  UNL1       -0.0825
     17 C          61.1090   95.0382   -3.1381 C.2     1  UNL1        0.3389
     18 O          60.6333   96.4493   -3.3179 O.2     1  UNL1       -0.2452
     19 C          61.2674   94.5464   -5.6842 C.3     1  UNL1        0.2559
     20 O          61.0338   94.0700   -4.2812 O.3     1  UNL1       -0.4415
     21 C          60.3554   93.1834    1.6569 C.1     1  UNL1        0.0976
     22 N          59.4277   92.6988    2.7313 N.1     1  UNL1       -0.1911
     23 C          64.0664   95.1216   -2.6411 C.3     1  UNL1        0.1486
     24 N          64.4027   94.2303   -3.7997 N.ar    1  UNL1       -0.3023
     25 C          64.2384   92.7399   -3.8423 C.ar    1  UNL1        0.0983
     26 C          64.6964   92.2614   -5.1881 C.ar    1  UNL1        0.1193
     27 N          65.1437   93.4560   -5.9773 N.ar    1  UNL1       -0.2223
     28 C          64.9621   94.6728   -5.1192 C.ar    1  UNL1        0.1789
@<TRIPOS>BOND
     1    19    20    1
     2    20    17    1
     3    17    18    2
     4    17     1    1
     5     1     2    2
     6     2    23    1
     7    23    24    1
     8    24    25   ar
     9    25    26   ar
    10    26    27   ar
    11    27    28   ar
    12     2     3    1
    13     3     4    1
    14     4     5    1
    15     4     6    2
    16     6    21    1
    17    21    22    3
    18     6     7    1
    19     7     9    1
    20     9    10   ar
    21    10    11   ar
    22    11    12   ar
    23    12    13    1
    24    12    14   ar
    25    14    15   ar
    26    15    16    1
    27     7     1    1
    28    15     9   ar
    29    28    24   ar
    30     3     8    1
