@<TRIPOS>MOLECULE
*****
 30 32 0 0 0
SMALL
GASTEIGER

@<TRIPOS>ATOM
      1 C          64.5343   89.5742   14.2554 C.3     1  UNL1        0.1565
      2 C          63.9124   89.8604   12.9206 C.ar    1  UNL1        0.0369
      3 C          63.1061   88.8030   12.2267 C.ar    1  UNL1        0.0121
      4 C          62.4844   89.0892   10.8920 C.ar    1  UNL1        0.0576
      5 CL         61.6780   88.0318   10.1979 Cl      1  UNL1       -0.0823
      6 C          62.6689   90.4329   10.2513 C.ar    1  UNL1        0.0145
      7 C          63.4752   91.4903   10.9453 C.ar    1  UNL1        0.0375
      8 C          64.0970   91.2041   12.2800 C.ar    1  UNL1        0.1369
      9 O          64.9033   92.2615   12.9740 O.3     1  UNL1       -0.4709
     10 C          66.3754   92.3763   12.7098 C.3     1  UNL1        0.2320
     11 C          66.8623   92.8779   11.3827 C.ar    1  UNL1        0.0212
     12 C          67.8915   92.0991   10.6182 C.ar    1  UNL1       -0.0007
     13 C          68.3784   92.6007    9.2910 C.ar    1  UNL1       -0.0002
     14 C          67.8361   93.8810    8.7283 C.ar    1  UNL1       -0.0000
     15 C          66.8070   94.6598    9.4927 C.ar    1  UNL1       -0.0002
     16 C          66.3201   94.1582   10.8199 C.ar    1  UNL1       -0.0007
     17 C          62.9075   89.3704   17.0770 C.3     1  UNL1        0.0518
     18 C          63.4444   88.2163   16.2835 C.ar    1  UNL1        0.0592
     19 C          63.3277   86.7658   16.6477 C.ar    1  UNL1        0.0506
     20 C          64.0034   85.9630   15.5757 C.ar    1  UNL1        0.1576
     21 N          64.5376   86.9173   14.5492 N.ar    1  UNL1       -0.1539
     22 N          64.1921   88.3099   14.9866 N.ar    1  UNL1       -0.2491
     23 N          64.1237   84.4684   15.5372 N.am    1  UNL1       -0.2336
     24 C          63.2496   83.6691   14.6168 C.2     1  UNL1        0.4064
     25 O          62.2552   84.3645   13.7351 O.2     1  UNL1       -0.2261
     26 H          64.7764   84.0119   16.1159 H       1  UNL1        0.1597
     27 O          63.3699   82.1745   14.5782 O.3     1  UNL1       -0.4382
     28 C          62.4621   81.3715   13.6943 C.3     1  UNL1        0.1707
     29 C          61.0804   81.0196   14.1602 C.3     1  UNL1        0.0474
     30 C          62.9362   80.9204   12.3446 C.3     1  UNL1        0.0474
@<TRIPOS>BOND
     1    17    18    1
     2    18    19   ar
     3    19    20   ar
     4    20    23    1
     5    23    24   am
     6    24    25    2
     7    24    27    1
     8    27    28    1
     9    28    29    1
    10    28    30    1
    11    20    21   ar
    12    21    22   ar
    13    22     1    1
    14     1     2    1
    15     2     3   ar
    16     3     4   ar
    17     4     5    1
    18     4     6   ar
    19     6     7   ar
    20     7     8   ar
    21     8     9    1
    22     9    10    1
    23    10    11    1
    24    11    12   ar
    25    12    13   ar
    26    13    14   ar
    27    14    15   ar
    28    15    16   ar
    29    22    18   ar
    30     8     2   ar
    31    16    11   ar
    32    23    26    1
@<TRIPOS>MOLECULE
*****
 30 32 0 0 0
SMALL
GASTEIGER

@<TRIPOS>ATOM
      1 C          63.5142   89.3922   15.5175 C.3     1  UNL1        0.1565
      2 C          64.0669   90.2583   14.4245 C.ar    1  UNL1        0.0369
      3 C          65.3415   91.0184   14.6421 C.ar    1  UNL1        0.0121
      4 C          65.8941   91.8844   13.5491 C.ar    1  UNL1        0.0576
      5 CL         67.1688   92.6447   13.7666 Cl      1  UNL1       -0.0823
      6 C          65.1721   91.9903   12.2386 C.ar    1  UNL1        0.0145
      7 C          63.8974   91.2301   12.0211 C.ar    1  UNL1        0.0375
      8 C          63.3449   90.3641   13.1140 C.ar    1  UNL1        0.1369
      9 O          62.0701   89.6039   12.8965 O.3     1  UNL1       -0.4709
     10 C          61.2923   89.7914   11.6278 C.3     1  UNL1        0.2320
     11 C          61.1830   88.6663   10.6418 C.ar    1  UNL1        0.0212
     12 C          60.2196   88.7639    9.4962 C.ar    1  UNL1       -0.0007
     13 C          60.1104   87.6387    8.5102 C.ar    1  UNL1       -0.0002
     14 C          60.9646   86.4161    8.6697 C.ar    1  UNL1       -0.0000
     15 C          61.9280   86.3185    9.8153 C.ar    1  UNL1       -0.0002
     16 C          62.0372   87.4436   10.8013 C.ar    1  UNL1       -0.0007
     17 C          62.7554   87.2803   17.8869 C.3     1  UNL1        0.0518
     18 C          63.3714   86.9363   16.5632 C.ar    1  UNL1        0.0592
     19 C          63.7467   85.5611   16.0962 C.ar    1  UNL1        0.0506
     20 C          64.3275   85.6819   14.7184 C.ar    1  UNL1        0.1576
     21 N          64.3111   87.1318   14.3340 N.ar    1  UNL1       -0.1539
     22 N          63.7202   87.9070   15.4741 N.ar    1  UNL1       -0.2491
     23 N          64.8354   84.5515   13.8735 N.am    1  UNL1       -0.2336
     24 C          63.8789   83.5292   13.3349 C.2     1  UNL1        0.4064
     25 O          62.4146   83.6374   13.6412 O.2     1  UNL1       -0.2261
     26 H          65.7966   84.4804   13.6724 H       1  UNL1        0.1597
     27 O          64.3869   82.3987   12.4899 O.3     1  UNL1       -0.4382
     28 C          63.9014   82.2395   11.0795 C.3     1  UNL1        0.1707
     29 C          63.1903   80.9845   10.6683 C.3     1  UNL1        0.0474
     30 C          64.1271   83.3355   10.0806 C.3     1  UNL1        0.0474
@<TRIPOS>BOND
     1    17    18    1
     2    18    19   ar
     3    19    20   ar
     4    20    23    1
     5    23    24   am
     6    24    25    2
     7    24    27    1
     8    27    28    1
     9    28    29    1
    10    28    30    1
    11    20    21   ar
    12    21    22   ar
    13    22     1    1
    14     1     2    1
    15     2     3   ar
    16     3     4   ar
    17     4     5    1
    18     4     6   ar
    19     6     7   ar
    20     7     8   ar
    21     8     9    1
    22     9    10    1
    23    10    11    1
    24    11    12   ar
    25    12    13   ar
    26    13    14   ar
    27    14    15   ar
    28    15    16   ar
    29    22    18   ar
    30     8     2   ar
    31    16    11   ar
    32    23    26    1
@<TRIPOS>MOLECULE
*****
 30 32 0 0 0
SMALL
GASTEIGER

@<TRIPOS>ATOM
      1 C          61.8916   90.3807   11.4074 C.3     1  UNL1        0.1565
      2 C          63.1999   91.0041   11.7944 C.ar    1  UNL1        0.0369
      3 C          64.0430   91.6837   10.7565 C.ar    1  UNL1        0.0121
      4 C          65.3512   92.3071   11.1435 C.ar    1  UNL1        0.0576
      5 CL         66.1944   92.9868   10.1055 Cl      1  UNL1       -0.0823
      6 C          65.8164   92.2509   12.5684 C.ar    1  UNL1        0.0145
      7 C          64.9734   91.5713   13.6063 C.ar    1  UNL1        0.0375
      8 C          63.6651   90.9479   13.2193 C.ar    1  UNL1        0.1369
      9 O          62.8220   90.2683   14.2573 O.3     1  UNL1       -0.4709
     10 C          63.4462   89.7885   15.5341 C.3     1  UNL1        0.2320
     11 C          63.5781   88.3179   15.7981 C.ar    1  UNL1        0.0212
     12 C          64.3504   87.4516   14.8478 C.ar    1  UNL1       -0.0007
     13 C          64.4824   85.9809   15.1119 C.ar    1  UNL1       -0.0002
     14 C          63.8420   85.3766   16.3263 C.ar    1  UNL1       -0.0000
     15 C          63.0697   86.2429   17.2766 C.ar    1  UNL1       -0.0002
     16 C          62.9378   87.7135   17.0125 C.ar    1  UNL1       -0.0007
     17 C          60.3205   89.0917    8.8540 C.3     1  UNL1        0.0518
     18 C          61.1083   88.3319    9.8797 C.ar    1  UNL1        0.0592
     19 C          61.3121   86.8461    9.9118 C.ar    1  UNL1        0.0506
     20 C          62.1603   86.5204   11.1053 C.ar    1  UNL1        0.1576
     21 N          62.4806   87.8048   11.8108 N.ar    1  UNL1       -0.1539
     22 N          61.8304   88.9244   11.0534 N.ar    1  UNL1       -0.2491
     23 N          62.6093   85.1507   11.5205 N.am    1  UNL1       -0.2336
     24 C          63.2115   84.2204   10.5095 C.2     1  UNL1        0.4064
     25 O          63.3646   84.6598    9.0836 O.2     1  UNL1       -0.2261
     26 H          62.5088   84.8623   12.4564 H       1  UNL1        0.1597
     27 O          63.6605   82.8508   10.9247 O.3     1  UNL1       -0.4382
     28 C          63.4013   82.3676   12.3209 C.3     1  UNL1        0.1707
     29 C          62.2569   81.4365   12.5920 C.3     1  UNL1        0.0474
     30 C          64.2865   82.8155   13.4460 C.3     1  UNL1        0.0474
@<TRIPOS>BOND
     1    17    18    1
     2    18    19   ar
     3    19    20   ar
     4    20    23    1
     5    23    24   am
     6    24    25    2
     7    24    27    1
     8    27    28    1
     9    28    29    1
    10    28    30    1
    11    20    21   ar
    12    21    22   ar
    13    22     1    1
    14     1     2    1
    15     2     3   ar
    16     3     4   ar
    17     4     5    1
    18     4     6   ar
    19     6     7   ar
    20     7     8   ar
    21     8     9    1
    22     9    10    1
    23    10    11    1
    24    11    12   ar
    25    12    13   ar
    26    13    14   ar
    27    14    15   ar
    28    15    16   ar
    29    22    18   ar
    30     8     2   ar
    31    16    11   ar
    32    23    26    1
@<TRIPOS>MOLECULE
*****
 30 32 0 0 0
SMALL
GASTEIGER

@<TRIPOS>ATOM
      1 C          61.2167   89.6712   11.8911 C.3     1  UNL1        0.1565
      2 C          60.9457   88.7733   10.7204 C.ar    1  UNL1        0.0369
      3 C          60.2650   89.3176    9.4996 C.ar    1  UNL1        0.0121
      4 C          59.9940   88.4197    8.3290 C.ar    1  UNL1        0.0576
      5 CL         59.3133   88.9639    7.1081 Cl      1  UNL1       -0.0823
      6 C          60.4037   86.9776    8.3792 C.ar    1  UNL1        0.0145
      7 C          61.0843   86.4334    9.6000 C.ar    1  UNL1        0.0375
      8 C          61.3553   87.3312   10.7706 C.ar    1  UNL1        0.1369
      9 O          62.0360   86.7870   11.9915 O.3     1  UNL1       -0.4709
     10 C          63.0119   85.6550   11.8643 C.3     1  UNL1        0.2320
     11 C          62.7650   84.3666   12.5916 C.ar    1  UNL1        0.0212
     12 C          62.6791   83.0786   11.8276 C.ar    1  UNL1       -0.0007
     13 C          62.4322   81.7902   12.5549 C.ar    1  UNL1       -0.0002
     14 C          62.2712   81.7897   14.0462 C.ar    1  UNL1       -0.0000
     15 C          62.3571   83.0777   14.8103 C.ar    1  UNL1       -0.0002
     16 C          62.6040   84.3661   14.0830 C.ar    1  UNL1       -0.0007
     17 C          63.1435   89.7519   14.5237 C.3     1  UNL1        0.0518
     18 C          63.4170   90.4224   13.2100 C.ar    1  UNL1        0.0592
     19 C          64.6241   91.2477   12.8759 C.ar    1  UNL1        0.0506
     20 C          64.4846   91.7207   11.4593 C.ar    1  UNL1        0.1576
     21 N          63.1912   91.1877   10.9180 N.ar    1  UNL1       -0.1539
     22 N          62.5313   90.3853   12.0000 N.ar    1  UNL1       -0.2491
     23 N          65.4660   92.5765   10.7147 N.am    1  UNL1       -0.2336
     24 C          66.2771   93.6013   11.4510 C.2     1  UNL1        0.4064
     25 O          66.1067   93.7703   12.9315 O.2     1  UNL1       -0.2261
     26 H          65.5779   92.4655    9.7429 H       1  UNL1        0.1597
     27 O          67.2586   94.4570   10.7064 O.3     1  UNL1       -0.4382
     28 C          67.6984   94.0666    9.3264 C.3     1  UNL1        0.1707
     29 C          67.2846   94.8935    8.1453 C.3     1  UNL1        0.0474
     30 C          68.5520   92.8493    9.1277 C.3     1  UNL1        0.0474
@<TRIPOS>BOND
     1    17    18    1
     2    18    19   ar
     3    19    20   ar
     4    20    23    1
     5    23    24   am
     6    24    25    2
     7    24    27    1
     8    27    28    1
     9    28    29    1
    10    28    30    1
    11    20    21   ar
    12    21    22   ar
    13    22     1    1
    14     1     2    1
    15     2     3   ar
    16     3     4   ar
    17     4     5    1
    18     4     6   ar
    19     6     7   ar
    20     7     8   ar
    21     8     9    1
    22     9    10    1
    23    10    11    1
    24    11    12   ar
    25    12    13   ar
    26    13    14   ar
    27    14    15   ar
    28    15    16   ar
    29    22    18   ar
    30     8     2   ar
    31    16    11   ar
    32    23    26    1
@<TRIPOS>MOLECULE
*****
 30 32 0 0 0
SMALL
GASTEIGER

@<TRIPOS>ATOM
      1 C          62.3157   85.1764   12.2280 C.3     1  UNL1        0.1565
      2 C          62.7161   83.7803   11.8527 C.ar    1  UNL1        0.0369
      3 C          62.3514   82.6303   12.7439 C.ar    1  UNL1        0.0121
      4 C          62.7517   81.2343   12.3685 C.ar    1  UNL1        0.0576
      5 CL         62.3870   80.0841   13.2598 Cl      1  UNL1       -0.0823
      6 C          63.5168   80.9884   11.1020 C.ar    1  UNL1        0.0145
      7 C          63.8815   82.1384   10.2108 C.ar    1  UNL1        0.0375
      8 C          63.4812   83.5344   10.5861 C.ar    1  UNL1        0.1369
      9 O          63.8459   84.6846    9.6949 O.3     1  UNL1       -0.4709
     10 C          63.0177   84.9845    8.4808 C.3     1  UNL1        0.2320
     11 C          61.9449   86.0309    8.5445 C.ar    1  UNL1        0.0212
     12 C          60.6784   85.8554    7.7600 C.ar    1  UNL1       -0.0007
     13 C          59.6056   86.9019    7.8238 C.ar    1  UNL1       -0.0002
     14 C          59.7993   88.1238    8.6719 C.ar    1  UNL1       -0.0000
     15 C          61.0657   88.2993    9.4563 C.ar    1  UNL1       -0.0002
     16 C          62.1385   87.2529    9.3926 C.ar    1  UNL1       -0.0007
     17 C          64.1038   84.0150   14.6986 C.3     1  UNL1        0.0518
     18 C          64.0078   85.4519   14.2788 C.ar    1  UNL1        0.0592
     19 C          64.7170   86.6072   14.9210 C.ar    1  UNL1        0.0506
     20 C          64.3333   87.8551   14.1823 C.ar    1  UNL1        0.1576
     21 N          63.3871   87.4710   13.0836 N.ar    1  UNL1       -0.1539
     22 N          63.1860   85.9857   13.1433 N.ar    1  UNL1       -0.2491
     23 N          64.8118   89.2433   14.4886 N.am    1  UNL1       -0.2336
     24 C          63.8914   90.2246   15.1519 C.2     1  UNL1        0.4064
     25 O          62.4926   89.8176   15.5089 O.2     1  UNL1       -0.2261
     26 H          65.7300   89.5105   14.2542 H       1  UNL1        0.1597
     27 O          64.3699   91.6128   15.4581 O.3     1  UNL1       -0.4382
     28 C          65.6642   92.1045   14.8807 C.3     1  UNL1        0.1707
     29 C          65.8099   92.2662   13.3966 C.3     1  UNL1        0.0474
     30 C          66.8126   92.4343   15.7876 C.3     1  UNL1        0.0474
@<TRIPOS>BOND
     1    17    18    1
     2    18    19   ar
     3    19    20   ar
     4    20    23    1
     5    23    24   am
     6    24    25    2
     7    24    27    1
     8    27    28    1
     9    28    29    1
    10    28    30    1
    11    20    21   ar
    12    21    22   ar
    13    22     1    1
    14     1     2    1
    15     2     3   ar
    16     3     4   ar
    17     4     5    1
    18     4     6   ar
    19     6     7   ar
    20     7     8   ar
    21     8     9    1
    22     9    10    1
    23    10    11    1
    24    11    12   ar
    25    12    13   ar
    26    13    14   ar
    27    14    15   ar
    28    15    16   ar
    29    22    18   ar
    30     8     2   ar
    31    16    11   ar
    32    23    26    1
@<TRIPOS>MOLECULE
*****
 30 32 0 0 0
SMALL
GASTEIGER

@<TRIPOS>ATOM
      1 C          61.1898   87.2251   11.1960 C.3     1  UNL1        0.1565
      2 C          61.9716   86.1276   10.5370 C.ar    1  UNL1        0.0369
      3 C          61.9894   86.0131    9.0415 C.ar    1  UNL1        0.0121
      4 C          62.7712   84.9156    8.3826 C.ar    1  UNL1        0.0576
      5 CL         62.7890   84.8012    6.8870 Cl      1  UNL1       -0.0823
      6 C          63.5352   83.9326    9.2191 C.ar    1  UNL1        0.0145
      7 C          63.5174   84.0470   10.7146 C.ar    1  UNL1        0.0375
      8 C          62.7357   85.1445   11.3735 C.ar    1  UNL1        0.1369
      9 O          62.7179   85.2589   12.8691 O.3     1  UNL1       -0.4709
     10 C          63.4193   84.2324   13.7082 C.3     1  UNL1        0.2320
     11 C          62.9505   82.8076   13.6978 C.ar    1  UNL1        0.0212
     12 C          61.5865   82.4630   14.2181 C.ar    1  UNL1       -0.0007
     13 C          61.1177   81.0381   14.2076 C.ar    1  UNL1       -0.0002
     14 C          62.0129   79.9579   13.6769 C.ar    1  UNL1       -0.0000
     15 C          63.3769   80.3025   13.1566 C.ar    1  UNL1       -0.0002
     16 C          63.8458   81.7273   13.1671 C.ar    1  UNL1       -0.0007
     17 C          60.4360   89.9633    9.5887 C.3     1  UNL1        0.0518
     18 C          61.4708   89.8300   10.6664 C.ar    1  UNL1        0.0592
     19 C          62.3407   90.9320   11.1946 C.ar    1  UNL1        0.0506
     20 C          63.2248   90.3545   12.2598 C.ar    1  UNL1        0.1576
     21 N          62.9013   88.8955   12.3900 N.ar    1  UNL1       -0.1539
     22 N          61.8173   88.5714   11.4052 N.ar    1  UNL1       -0.2491
     23 N          64.2521   91.1041   13.0552 N.am    1  UNL1       -0.2336
     24 C          64.1421   91.1697   14.5497 C.2     1  UNL1        0.4064
     25 O          63.0049   90.4857   15.2488 O.2     1  UNL1       -0.2261
     26 H          64.9986   91.5531   12.5964 H       1  UNL1        0.1597
     27 O          65.1693   91.9194   15.3451 O.3     1  UNL1       -0.4382
     28 C          66.4362   92.3814   14.6879 C.3     1  UNL1        0.1707
     29 C          66.5363   93.7786   14.1514 C.3     1  UNL1        0.0474
     30 C          67.6027   91.4462   14.5674 C.3     1  UNL1        0.0474
@<TRIPOS>BOND
     1    17    18    1
     2    18    19   ar
     3    19    20   ar
     4    20    23    1
     5    23    24   am
     6    24    25    2
     7    24    27    1
     8    27    28    1
     9    28    29    1
    10    28    30    1
    11    20    21   ar
    12    21    22   ar
    13    22     1    1
    14     1     2    1
    15     2     3   ar
    16     3     4   ar
    17     4     5    1
    18     4     6   ar
    19     6     7   ar
    20     7     8   ar
    21     8     9    1
    22     9    10    1
    23    10    11    1
    24    11    12   ar
    25    12    13   ar
    26    13    14   ar
    27    14    15   ar
    28    15    16   ar
    29    22    18   ar
    30     8     2   ar
    31    16    11   ar
    32    23    26    1
@<TRIPOS>MOLECULE
*****
 30 32 0 0 0
SMALL
GASTEIGER

@<TRIPOS>ATOM
      1 C          61.6535   86.9698   11.6744 C.3     1  UNL1        0.1565
      2 C          62.3063   85.8439   10.9286 C.ar    1  UNL1        0.0369
      3 C          62.3392   85.8571    9.4291 C.ar    1  UNL1        0.0121
      4 C          62.9919   84.7311    8.6833 C.ar    1  UNL1        0.0576
      5 CL         63.0249   84.7443    7.1837 Cl      1  UNL1       -0.0823
      6 C          63.6117   83.5920    9.4371 C.ar    1  UNL1        0.0145
      7 C          63.5788   83.5788   10.9367 C.ar    1  UNL1        0.0375
      8 C          62.9260   84.7047   11.6824 C.ar    1  UNL1        0.1369
      9 O          62.8931   84.6916   13.1821 O.3     1  UNL1       -0.4709
     10 C          63.9856   85.3608   13.9621 C.3     1  UNL1        0.2320
     11 C          63.6485   86.1865   15.1681 C.ar    1  UNL1        0.0212
     12 C          63.8671   87.6703   15.1462 C.ar    1  UNL1       -0.0007
     13 C          63.5299   88.4960   16.3523 C.ar    1  UNL1       -0.0002
     14 C          62.9742   87.8379   17.5803 C.ar    1  UNL1       -0.0000
     15 C          62.7556   86.3540   17.6022 C.ar    1  UNL1       -0.0002
     16 C          63.0927   85.5283   16.3962 C.ar    1  UNL1       -0.0007
     17 C          60.1674   89.1205    9.7210 C.3     1  UNL1        0.0518
     18 C          61.4051   89.3727   10.5301 C.ar    1  UNL1        0.0592
     19 C          62.1769   90.6578   10.5834 C.ar    1  UNL1        0.0506
     20 C          63.3370   90.4635   11.5142 C.ar    1  UNL1        0.1576
     21 N          63.2821   89.0583   12.0362 N.ar    1  UNL1       -0.1539
     22 N          62.0881   88.3842   11.4280 N.ar    1  UNL1       -0.2491
     23 N          64.3705   91.4935   11.8619 N.am    1  UNL1       -0.2336
     24 C          64.5698   91.9031   13.2911 C.2     1  UNL1        0.4064
     25 O          63.7357   91.2828   14.3724 O.2     1  UNL1       -0.2261
     26 H          64.9180   91.9006   11.1522 H       1  UNL1        0.1597
     27 O          65.6033   92.9331   13.6389 O.3     1  UNL1       -0.4382
     28 C          66.6739   92.6132   14.6398 C.3     1  UNL1        0.1707
     29 C          68.0586   92.2731   14.1740 C.3     1  UNL1        0.0474
     30 C          66.3595   92.6335   16.1063 C.3     1  UNL1        0.0474
@<TRIPOS>BOND
     1    17    18    1
     2    18    19   ar
     3    19    20   ar
     4    20    23    1
     5    23    24   am
     6    24    25    2
     7    24    27    1
     8    27    28    1
     9    28    29    1
    10    28    30    1
    11    20    21   ar
    12    21    22   ar
    13    22     1    1
    14     1     2    1
    15     2     3   ar
    16     3     4   ar
    17     4     5    1
    18     4     6   ar
    19     6     7   ar
    20     7     8   ar
    21     8     9    1
    22     9    10    1
    23    10    11    1
    24    11    12   ar
    25    12    13   ar
    26    13    14   ar
    27    14    15   ar
    28    15    16   ar
    29    22    18   ar
    30     8     2   ar
    31    16    11   ar
    32    23    26    1
@<TRIPOS>MOLECULE
*****
 30 32 0 0 0
SMALL
GASTEIGER

@<TRIPOS>ATOM
      1 C          64.4093   85.7342   14.1837 C.3     1  UNL1        0.1565
      2 C          63.9465   86.7224   15.2130 C.ar    1  UNL1        0.0369
      3 C          63.5062   86.2459   16.5654 C.ar    1  UNL1        0.0121
      4 C          63.0435   87.2341   17.5946 C.ar    1  UNL1        0.0576
      5 CL         62.6031   86.7576   18.9471 Cl      1  UNL1       -0.0823
      6 C          63.0210   88.6987   17.2714 C.ar    1  UNL1        0.0145
      7 C          63.4613   89.1751   15.9190 C.ar    1  UNL1        0.0375
      8 C          63.9240   88.1869   14.8898 C.ar    1  UNL1        0.1369
      9 O          64.3644   88.6634   13.5373 O.3     1  UNL1       -0.4709
     10 C          63.7015   89.8532   12.9088 C.3     1  UNL1        0.2320
     11 C          64.4948   91.0967   12.6363 C.ar    1  UNL1        0.0212
     12 C          65.3284   91.7078   13.7233 C.ar    1  UNL1       -0.0007
     13 C          66.1218   92.9514   13.4507 C.ar    1  UNL1       -0.0002
     14 C          66.0815   93.5838   12.0911 C.ar    1  UNL1       -0.0000
     15 C          65.2479   92.9726   11.0041 C.ar    1  UNL1       -0.0002
     16 C          64.4546   91.7291   11.2766 C.ar    1  UNL1       -0.0007
     17 C          64.2120   82.8390   12.6908 C.3     1  UNL1        0.0518
     18 C          63.4406   84.0730   12.3270 C.ar    1  UNL1        0.0592
     19 C          62.4432   84.1928   11.2131 C.ar    1  UNL1        0.0506
     20 C          61.9174   85.5976   11.2109 C.ar    1  UNL1        0.1576
     21 N          62.5900   86.3460   12.3234 N.ar    1  UNL1       -0.1539
     22 N          63.5314   85.4037   13.0132 N.ar    1  UNL1       -0.2491
     23 N          60.8981   86.1561   10.2626 N.am    1  UNL1       -0.2336
     24 C          61.2504   86.3623    8.8192 C.2     1  UNL1        0.4064
     25 O          62.6217   86.0102    8.3241 O.2     1  UNL1       -0.2261
     26 H          59.9980   86.3872   10.5876 H       1  UNL1        0.1597
     27 O          60.2311   86.9207    7.8710 O.3     1  UNL1       -0.4382
     28 C          59.8753   88.3770    7.9246 C.3     1  UNL1        0.1707
     29 C          59.1473   89.0139    6.7781 C.3     1  UNL1        0.0474
     30 C          60.2476   89.1963    9.1247 C.3     1  UNL1        0.0474
@<TRIPOS>BOND
     1    17    18    1
     2    18    19   ar
     3    19    20   ar
     4    20    23    1
     5    23    24   am
     6    24    25    2
     7    24    27    1
     8    27    28    1
     9    28    29    1
    10    28    30    1
    11    20    21   ar
    12    21    22   ar
    13    22     1    1
    14     1     2    1
    15     2     3   ar
    16     3     4   ar
    17     4     5    1
    18     4     6   ar
    19     6     7   ar
    20     7     8   ar
    21     8     9    1
    22     9    10    1
    23    10    11    1
    24    11    12   ar
    25    12    13   ar
    26    13    14   ar
    27    14    15   ar
    28    15    16   ar
    29    22    18   ar
    30     8     2   ar
    31    16    11   ar
    32    23    26    1
@<TRIPOS>MOLECULE
*****
 30 32 0 0 0
SMALL
GASTEIGER

@<TRIPOS>ATOM
      1 C          60.7613   89.1865   11.9526 C.3     1  UNL1        0.1565
      2 C          60.6356   88.3317   10.7263 C.ar    1  UNL1        0.0369
      3 C          59.9056   88.8497    9.5226 C.ar    1  UNL1        0.0121
      4 C          59.7800   87.9950    8.2964 C.ar    1  UNL1        0.0576
      5 CL         59.0500   88.5130    7.0927 Cl      1  UNL1       -0.0823
      6 C          60.3843   86.6223    8.2739 C.ar    1  UNL1        0.0145
      7 C          61.1142   86.1043    9.4775 C.ar    1  UNL1        0.0375
      8 C          61.2399   86.9590   10.7037 C.ar    1  UNL1        0.1369
      9 O          61.9698   86.4410   11.9075 O.3     1  UNL1       -0.4709
     10 C          62.9349   85.3014   11.7664 C.3     1  UNL1        0.2320
     11 C          62.7073   84.0277   12.5253 C.ar    1  UNL1        0.0212
     12 C          62.6628   82.7178   11.7958 C.ar    1  UNL1       -0.0007
     13 C          62.4353   81.4440   12.5548 C.ar    1  UNL1       -0.0002
     14 C          62.2523   81.4803   14.0431 C.ar    1  UNL1       -0.0000
     15 C          62.2968   82.7902   14.7726 C.ar    1  UNL1       -0.0002
     16 C          62.5244   84.0639   14.0137 C.ar    1  UNL1       -0.0007
     17 C          62.5321   90.9863    9.8851 C.3     1  UNL1        0.0518
     18 C          62.8770   90.6904   11.3147 C.ar    1  UNL1        0.0592
     19 C          64.0964   91.1699   12.0448 C.ar    1  UNL1        0.0506
     20 C          64.0361   90.6389   13.4464 C.ar    1  UNL1        0.1576
     21 N          62.7794   89.8313   13.5824 N.ar    1  UNL1       -0.1539
     22 N          62.0630   89.8631   12.2649 N.ar    1  UNL1       -0.2491
     23 N          65.0538   90.8742   14.5229 N.am    1  UNL1       -0.2336
     24 C          65.8050   92.1716   14.5741 C.2     1  UNL1        0.4064
     25 O          65.5386   93.2335   13.5488 O.2     1  UNL1       -0.2261
     26 H          65.2286   90.1772   15.1959 H       1  UNL1        0.1597
     27 O          66.8227   92.4069   15.6506 O.3     1  UNL1       -0.4382
     28 C          68.2857   92.3066   15.3346 C.3     1  UNL1        0.1707
     29 C          68.7314   91.9978   13.9361 C.3     1  UNL1        0.0474
     30 C          69.3027   92.5152   16.4173 C.3     1  UNL1        0.0474
@<TRIPOS>BOND
     1    17    18    1
     2    18    19   ar
     3    19    20   ar
     4    20    23    1
     5    23    24   am
     6    24    25    2
     7    24    27    1
     8    27    28    1
     9    28    29    1
    10    28    30    1
    11    20    21   ar
    12    21    22   ar
    13    22     1    1
    14     1     2    1
    15     2     3   ar
    16     3     4   ar
    17     4     5    1
    18     4     6   ar
    19     6     7   ar
    20     7     8   ar
    21     8     9    1
    22     9    10    1
    23    10    11    1
    24    11    12   ar
    25    12    13   ar
    26    13    14   ar
    27    14    15   ar
    28    15    16   ar
    29    22    18   ar
    30     8     2   ar
    31    16    11   ar
    32    23    26    1
