@<TRIPOS>MOLECULE
*****
 36 39 0 0 0
SMALL
GASTEIGER

@<TRIPOS>ATOM
      1 C          63.0458   90.2716   11.4056 C.ar    1  UNL1        0.1683
      2 N          63.9973   91.2373   10.7639 N.ar    1  UNL1       -0.2101
      3 C          64.9518   92.0250   11.6115 C.ar    1  UNL1        0.1543
      4 C          64.9548   91.8469   13.1009 C.ar    1  UNL1        0.1485
      5 N          65.7746   92.4801   14.1857 N.ar    1  UNL1       -0.2194
      6 C          65.3297   91.9056   15.4980 C.ar    1  UNL1        0.1798
      7 N          64.2350   90.9174   15.2242 N.ar    1  UNL1       -0.2944
      8 C          64.0033   90.8811   13.7426 C.ar    1  UNL1        0.1672
      9 N          63.0488   90.0934   12.8950 N.ar    1  UNL1       -0.2077
     10 N          59.2275   87.1209    8.0153 N.pl3   1  UNL1       -0.3274
     11 C          60.1821   87.9085    8.8629 C.ar    1  UNL1        0.2137
     12 N          59.9588   89.3762    9.0778 N.ar    1  UNL1       -0.2123
     13 C          60.9134   90.1638    9.9254 C.ar    1  UNL1        0.1064
     14 C          62.0912   89.4838   10.5580 C.ar    1  UNL1        0.0743
     15 C          62.3145   88.0163   10.3431 C.ar    1  UNL1        0.1064
     16 N          61.3599   87.2285    9.4955 N.ar    1  UNL1       -0.2123
     17 H          58.4544   87.5672    7.6001 H       1  UNL1        0.1452
     18 H          59.3741   86.1576    7.8742 H       1  UNL1        0.1452
     19 N          65.9034   92.9908   10.9696 N.pl3   1  UNL1       -0.2868
     20 C          65.7023   94.4674   11.1408 C.3     1  UNL1        0.1243
     21 C          66.6538   95.4332   10.4990 C.3     1  UNL1        0.1636
     22 O          67.8062   94.9224    9.6861 O.3     1  UNL1       -0.3501
     23 C          68.0073   93.4458    9.5149 C.3     1  UNL1        0.1636
     24 C          67.0558   92.4800   10.1567 C.3     1  UNL1        0.1243
     25 C          63.5009   90.1077   16.2515 C.3     1  UNL1        0.1090
     26 C          63.4746   88.6114   16.1485 C.3     1  UNL1        0.0246
     27 C          62.8719   87.7942   17.2524 C.3     1  UNL1        0.0020
     28 C          62.8692   86.2969   17.1617 C.3     1  UNL1        0.0006
     29 C          63.9144   85.5929   16.3482 C.3     1  UNL1        0.0096
     30 C          63.6321   85.2235   14.9221 C.3     1  UNL1        0.0871
     31 C          63.4761   83.7821   14.5375 C.2     1  UNL1        0.2443
     32 O          64.2007   83.2427   13.3399 O.2     1  UNL1       -0.2730
     33 N          62.5955   82.8801   15.3503 N.am    1  UNL1       -0.1970
     34 O          62.4394   81.4386   14.9657 O.3     1  UNL1       -0.2952
     35 H          62.1199   83.2341   16.1363 H       1  UNL1        0.1822
     36 H          62.9708   81.2556   14.1751 H       1  UNL1        0.2414
@<TRIPOS>BOND
     1    10    11    1
     2    11    12   ar
     3    12    13   ar
     4    13    14   ar
     5    14     1    1
     6     1     2   ar
     7     2     3   ar
     8     3    19    1
     9    19    20    1
    10    20    21    1
    11    21    22    1
    12    22    23    1
    13    23    24    1
    14     3     4   ar
    15     4     5   ar
    16     5     6   ar
    17     6     7   ar
    18     7    25    1
    19    25    26    1
    20    26    27    1
    21    27    28    1
    22    28    29    1
    23    29    30    1
    24    30    31    1
    25    31    32    2
    26    31    33   am
    27    33    34    1
    28     7     8   ar
    29     8     9   ar
    30    14    15   ar
    31    15    16   ar
    32    16    11   ar
    33     9     1   ar
    34    24    19    1
    35     8     4   ar
    36    10    17    1
    37    10    18    1
    38    33    35    1
    39    34    36    1
@<TRIPOS>MOLECULE
*****
 36 39 0 0 0
SMALL
GASTEIGER

@<TRIPOS>ATOM
      1 C          61.9372   86.4741   11.1301 C.ar    1  UNL1        0.1683
      2 N          61.9028   84.9799   11.2561 N.ar    1  UNL1       -0.2101
      3 C          62.6531   84.3032   12.3649 C.ar    1  UNL1        0.1543
      4 C          63.4377   85.1209   13.3476 C.ar    1  UNL1        0.1485
      5 N          64.2698   84.7366   14.5350 N.ar    1  UNL1       -0.2194
      6 C          64.8185   85.9933   15.1427 C.ar    1  UNL1        0.1798
      7 N          64.3255   87.1544   14.3310 N.ar    1  UNL1       -0.2944
      8 C          63.4721   86.6152   13.2216 C.ar    1  UNL1        0.1672
      9 N          62.7219   87.2918   12.1128 N.ar    1  UNL1       -0.2077
     10 N          58.9363   89.1807    6.6951 N.pl3   1  UNL1       -0.3274
     11 C          59.6865   88.5041    7.8038 C.ar    1  UNL1        0.2137
     12 N          59.7828   87.0076    7.8401 N.ar    1  UNL1       -0.2123
     13 C          60.5330   86.3310    8.9489 C.ar    1  UNL1        0.1064
     14 C          61.1870   87.1509   10.0213 C.ar    1  UNL1        0.0743
     15 C          61.0907   88.6472    9.9851 C.ar    1  UNL1        0.1064
     16 N          60.3405   89.3239    8.8763 N.ar    1  UNL1       -0.2123
     17 H          58.5071   88.6426    5.9912 H       1  UNL1        0.1452
     18 H          58.8731   90.1629    6.6713 H       1  UNL1        0.1452
     19 N          62.6186   82.8089   12.4909 N.pl3   1  UNL1       -0.2868
     20 C          63.0822   81.9494   11.3523 C.3     1  UNL1        0.1243
     21 C          63.0477   80.4551   11.4782 C.3     1  UNL1        0.1636
     22 O          62.5497   79.8203   12.7427 O.3     1  UNL1       -0.3501
     23 C          62.0862   80.6798   13.8813 C.3     1  UNL1        0.1636
     24 C          62.1206   82.1741   13.7554 C.3     1  UNL1        0.1243
     25 C          64.6321   88.6007   14.5843 C.3     1  UNL1        0.1090
     26 C          63.5173   89.5681   14.8516 C.3     1  UNL1        0.0246
     27 C          63.4760   90.8826   14.1303 C.3     1  UNL1        0.0020
     28 C          63.7554   90.9392   12.6577 C.3     1  UNL1        0.0006
     29 C          64.8522   91.8192   12.1356 C.3     1  UNL1        0.0096
     30 C          65.9123   92.3288   13.0665 C.3     1  UNL1        0.0871
     31 C          67.3576   92.2479   12.6735 C.2     1  UNL1        0.2443
     32 O          67.7578   92.4473   11.2417 O.2     1  UNL1       -0.2730
     33 N          68.4027   91.9675   13.7122 N.am    1  UNL1       -0.1970
     34 O          69.8481   91.8866   13.3192 O.3     1  UNL1       -0.2952
     35 H          68.1401   91.8366   14.6519 H       1  UNL1        0.1822
     36 H          69.9326   92.0381   12.3648 H       1  UNL1        0.2414
@<TRIPOS>BOND
     1    10    11    1
     2    11    12   ar
     3    12    13   ar
     4    13    14   ar
     5    14     1    1
     6     1     2   ar
     7     2     3   ar
     8     3    19    1
     9    19    20    1
    10    20    21    1
    11    21    22    1
    12    22    23    1
    13    23    24    1
    14     3     4   ar
    15     4     5   ar
    16     5     6   ar
    17     6     7   ar
    18     7    25    1
    19    25    26    1
    20    26    27    1
    21    27    28    1
    22    28    29    1
    23    29    30    1
    24    30    31    1
    25    31    32    2
    26    31    33   am
    27    33    34    1
    28     7     8   ar
    29     8     9   ar
    30    14    15   ar
    31    15    16   ar
    32    16    11   ar
    33     9     1   ar
    34    24    19    1
    35     8     4   ar
    36    10    17    1
    37    10    18    1
    38    33    35    1
    39    34    36    1
@<TRIPOS>MOLECULE
*****
 36 39 0 0 0
SMALL
GASTEIGER

@<TRIPOS>ATOM
      1 C          61.9297   86.4893   11.1104 C.ar    1  UNL1        0.1683
      2 N          61.8924   84.9974   11.2602 N.ar    1  UNL1       -0.2101
      3 C          62.6379   84.3373   12.3820 C.ar    1  UNL1        0.1543
      4 C          63.4207   85.1692   13.3541 C.ar    1  UNL1        0.1485
      5 N          64.2483   84.8025   14.5502 N.ar    1  UNL1       -0.2194
      6 C          64.7971   86.0680   15.1396 C.ar    1  UNL1        0.1798
      7 N          64.3087   87.2167   14.3079 N.ar    1  UNL1       -0.2944
      8 C          63.4580   86.6613   13.2044 C.ar    1  UNL1        0.1672
      9 N          62.7125   87.3213   12.0825 N.ar    1  UNL1       -0.2077
     10 N          58.9478   89.1300    6.6232 N.pl3   1  UNL1       -0.3274
     11 C          59.6933   88.4698    7.7450 C.ar    1  UNL1        0.2137
     12 N          60.3487   89.3056    8.8041 N.ar    1  UNL1       -0.2123
     13 C          61.0942   88.6455    9.9259 C.ar    1  UNL1        0.1064
     14 C          61.1842   87.1495    9.9886 C.ar    1  UNL1        0.0743
     15 C          60.5288   86.3137    8.9295 C.ar    1  UNL1        0.1064
     16 N          59.7833   86.9739    7.8076 N.ar    1  UNL1       -0.2123
     17 H          58.8887   90.1119    6.5820 H       1  UNL1        0.1452
     18 H          58.5176   88.5814    5.9280 H       1  UNL1        0.1452
     19 N          62.6005   82.8452   12.5317 N.pl3   1  UNL1       -0.2868
     20 C          63.0540   81.9667   11.4036 C.3     1  UNL1        0.1243
     21 C          63.0167   80.4747   11.5532 C.3     1  UNL1        0.1636
     22 O          62.5258   79.8611   12.8309 O.3     1  UNL1       -0.3501
     23 C          62.0723   80.7396   13.9590 C.3     1  UNL1        0.1636
     24 C          62.1097   82.2317   13.8094 C.3     1  UNL1        0.1243
     25 C          64.6169   88.6664   14.5391 C.3     1  UNL1        0.1090
     26 C          63.6197   89.7167   14.1488 C.3     1  UNL1        0.0246
     27 C          63.9945   90.7732   13.1522 C.3     1  UNL1        0.0020
     28 C          65.1621   91.6761   13.4195 C.3     1  UNL1        0.0006
     29 C          65.8191   91.6733   14.7680 C.3     1  UNL1        0.0096
     30 C          66.6433   92.8486   15.2032 C.3     1  UNL1        0.0871
     31 C          68.1202   92.8668   14.9419 C.2     1  UNL1        0.2443
     32 O          69.0180   93.7354   15.7722 O.2     1  UNL1       -0.2730
     33 N          68.6993   92.0165   13.8505 N.am    1  UNL1       -0.1970
     34 O          70.1763   92.0347   13.5892 O.3     1  UNL1       -0.2952
     35 H          68.1100   91.4464   13.3055 H       1  UNL1        0.1822
     36 H          70.6068   92.6437   14.2094 H       1  UNL1        0.2414
@<TRIPOS>BOND
     1    10    11    1
     2    11    12   ar
     3    12    13   ar
     4    13    14   ar
     5    14     1    1
     6     1     2   ar
     7     2     3   ar
     8     3    19    1
     9    19    20    1
    10    20    21    1
    11    21    22    1
    12    22    23    1
    13    23    24    1
    14     3     4   ar
    15     4     5   ar
    16     5     6   ar
    17     6     7   ar
    18     7    25    1
    19    25    26    1
    20    26    27    1
    21    27    28    1
    22    28    29    1
    23    29    30    1
    24    30    31    1
    25    31    32    2
    26    31    33   am
    27    33    34    1
    28     7     8   ar
    29     8     9   ar
    30    14    15   ar
    31    15    16   ar
    32    16    11   ar
    33     9     1   ar
    34    24    19    1
    35     8     4   ar
    36    10    17    1
    37    10    18    1
    38    33    35    1
    39    34    36    1
@<TRIPOS>MOLECULE
*****
 36 39 0 0 0
SMALL
GASTEIGER

@<TRIPOS>ATOM
      1 C          61.9511   86.4920   11.0994 C.ar    1  UNL1        0.1683
      2 N          61.9259   84.9973   11.2214 N.ar    1  UNL1       -0.2101
      3 C          62.6639   84.3235   12.3400 C.ar    1  UNL1        0.1543
      4 C          63.4271   85.1446   13.3366 C.ar    1  UNL1        0.1485
      5 N          64.2437   84.7635   14.5358 N.ar    1  UNL1       -0.2194
      6 C          64.7735   86.0229   15.1549 C.ar    1  UNL1        0.1798
      7 N          64.2845   87.1822   14.3384 N.ar    1  UNL1       -0.2944
      8 C          63.4523   86.6394   13.2146 C.ar    1  UNL1        0.1672
      9 N          62.7143   87.3131   12.0960 N.ar    1  UNL1       -0.2077
     10 N          58.9989   89.1869    6.6247 N.pl3   1  UNL1       -0.3274
     11 C          59.7369   88.5132    7.7434 C.ar    1  UNL1        0.2137
     12 N          59.8049   87.0159    7.8025 N.ar    1  UNL1       -0.2123
     13 C          60.5429   86.3422    8.9211 C.ar    1  UNL1        0.1064
     14 C          61.2130   87.1658    9.9807 C.ar    1  UNL1        0.0743
     15 C          61.1450   88.6630    9.9216 C.ar    1  UNL1        0.1064
     16 N          60.4070   89.3368    8.8029 N.ar    1  UNL1       -0.2123
     17 H          58.5591   88.6464    5.9293 H       1  UNL1        0.1452
     18 H          58.9542   90.1697    6.5860 H       1  UNL1        0.1452
     19 N          62.6387   82.8286   12.4620 N.pl3   1  UNL1       -0.2868
     20 C          63.0414   81.9742   11.2967 C.3     1  UNL1        0.1243
     21 C          63.0162   80.4794   11.4186 C.3     1  UNL1        0.1636
     22 O          62.5883   79.8390   12.7058 O.3     1  UNL1       -0.3501
     23 C          62.1856   80.6934   13.8710 C.3     1  UNL1        0.1636
     24 C          62.2108   82.1883   13.7492 C.3     1  UNL1        0.1243
     25 C          64.5763   88.6302   14.5998 C.3     1  UNL1        0.1090
     26 C          63.5293   89.6681   14.3232 C.3     1  UNL1        0.0246
     27 C          63.9360   91.0663   13.9633 C.3     1  UNL1        0.0020
     28 C          64.2415   91.4148   12.5366 C.3     1  UNL1        0.0006
     29 C          65.3263   92.4015   12.2213 C.3     1  UNL1        0.0096
     30 C          65.7402   92.6318   10.7980 C.3     1  UNL1        0.0871
     31 C          67.0461   93.3052   10.4963 C.2     1  UNL1        0.2443
     32 O          67.1544   94.7994   10.5714 O.2     1  UNL1       -0.2730
     33 N          68.2437   92.4845   10.1195 N.am    1  UNL1       -0.1970
     34 O          69.5496   93.1580    9.8177 O.3     1  UNL1       -0.2952
     35 H          68.1727   91.5038   10.0702 H       1  UNL1        0.1822
     36 H          69.4477   94.1180    9.9118 H       1  UNL1        0.2414
@<TRIPOS>BOND
     1    10    11    1
     2    11    12   ar
     3    12    13   ar
     4    13    14   ar
     5    14     1    1
     6     1     2   ar
     7     2     3   ar
     8     3    19    1
     9    19    20    1
    10    20    21    1
    11    21    22    1
    12    22    23    1
    13    23    24    1
    14     3     4   ar
    15     4     5   ar
    16     5     6   ar
    17     6     7   ar
    18     7    25    1
    19    25    26    1
    20    26    27    1
    21    27    28    1
    22    28    29    1
    23    29    30    1
    24    30    31    1
    25    31    32    2
    26    31    33   am
    27    33    34    1
    28     7     8   ar
    29     8     9   ar
    30    14    15   ar
    31    15    16   ar
    32    16    11   ar
    33     9     1   ar
    34    24    19    1
    35     8     4   ar
    36    10    17    1
    37    10    18    1
    38    33    35    1
    39    34    36    1
@<TRIPOS>MOLECULE
*****
 36 39 0 0 0
SMALL
GASTEIGER

@<TRIPOS>ATOM
      1 C          62.6917   85.6828   12.3286 C.ar    1  UNL1        0.1683
      2 N          61.8225   85.9630   11.1387 N.ar    1  UNL1       -0.2101
      3 C          61.6458   87.3716   10.6540 C.ar    1  UNL1        0.1543
      4 C          62.3384   88.4998   11.3593 C.ar    1  UNL1        0.1485
      5 N          62.3531   89.9793   11.1127 N.ar    1  UNL1       -0.2194
      6 C          63.2314   90.6134   12.1502 C.ar    1  UNL1        0.1798
      7 N          63.7596   89.5258   13.0380 N.ar    1  UNL1       -0.2944
      8 C          63.2077   88.2195   12.5492 C.ar    1  UNL1        0.1672
      9 N          63.3843   86.8110   13.0338 N.ar    1  UNL1       -0.2077
     10 N          63.3985   80.0487   14.2672 N.pl3   1  UNL1       -0.3274
     11 C          63.2218   81.4572   13.7825 C.ar    1  UNL1        0.2137
     12 N          63.0612   81.7314   12.3166 N.ar    1  UNL1       -0.2123
     13 C          62.8845   83.1399   11.8319 C.ar    1  UNL1        0.1064
     14 C          62.8684   84.2742   12.8133 C.ar    1  UNL1        0.0743
     15 C          63.0291   84.0001   14.2791 C.ar    1  UNL1        0.1064
     16 N          63.2058   82.5915   14.7639 N.ar    1  UNL1       -0.2123
     17 H          63.4090   79.3042   13.6231 H       1  UNL1        0.1452
     18 H          63.5040   79.8688   15.2293 H       1  UNL1        0.1452
     19 N          60.7765   87.6518    9.4641 N.pl3   1  UNL1       -0.2868
     20 C          60.1306   86.5184    8.7237 C.3     1  UNL1        0.1243
     21 C          59.2613   86.7985    7.5338 C.3     1  UNL1        0.1636
     22 O          59.0380   88.2120    7.0843 O.3     1  UNL1       -0.3501
     23 C          59.6840   89.3454    7.8247 C.3     1  UNL1        0.1636
     24 C          60.5533   89.0653    9.0146 C.3     1  UNL1        0.1243
     25 C          64.6783   89.7119   14.2090 C.3     1  UNL1        0.1090
     26 C          65.0975   91.0918   14.6216 C.3     1  UNL1        0.0246
     27 C          66.4297   91.6308   14.1920 C.3     1  UNL1        0.0020
     28 C          66.5400   93.0357   13.6781 C.3     1  UNL1        0.0006
     29 C          66.0889   93.3625   12.2854 C.3     1  UNL1        0.0096
     30 C          66.8493   92.8313   11.1066 C.3     1  UNL1        0.0871
     31 C          67.2129   93.7458    9.9746 C.2     1  UNL1        0.2443
     32 O          68.6515   93.9306    9.5922 O.2     1  UNL1       -0.2730
     33 N          66.1380   94.4755    9.2250 N.am    1  UNL1       -0.1970
     34 O          66.5016   95.3900    8.0930 O.3     1  UNL1       -0.2952
     35 H          65.1938   94.3542    9.4760 H       1  UNL1        0.1822
     36 H          67.4648   95.3954    7.9783 H       1  UNL1        0.2414
@<TRIPOS>BOND
     1    10    11    1
     2    11    12   ar
     3    12    13   ar
     4    13    14   ar
     5    14     1    1
     6     1     2   ar
     7     2     3   ar
     8     3    19    1
     9    19    20    1
    10    20    21    1
    11    21    22    1
    12    22    23    1
    13    23    24    1
    14     3     4   ar
    15     4     5   ar
    16     5     6   ar
    17     6     7   ar
    18     7    25    1
    19    25    26    1
    20    26    27    1
    21    27    28    1
    22    28    29    1
    23    29    30    1
    24    30    31    1
    25    31    32    2
    26    31    33   am
    27    33    34    1
    28     7     8   ar
    29     8     9   ar
    30    14    15   ar
    31    15    16   ar
    32    16    11   ar
    33     9     1   ar
    34    24    19    1
    35     8     4   ar
    36    10    17    1
    37    10    18    1
    38    33    35    1
    39    34    36    1
@<TRIPOS>MOLECULE
*****
 36 39 0 0 0
SMALL
GASTEIGER

@<TRIPOS>ATOM
      1 C          62.6075   85.5766   12.2876 C.ar    1  UNL1        0.1683
      2 N          61.7524   85.8805   11.0934 N.ar    1  UNL1       -0.2101
      3 C          61.5985   87.2962   10.6219 C.ar    1  UNL1        0.1543
      4 C          62.2997   88.4078   11.3447 C.ar    1  UNL1        0.1485
      5 N          62.3360   89.8895   11.1136 N.ar    1  UNL1       -0.2194
      6 C          63.2136   90.5012   12.1651 C.ar    1  UNL1        0.1798
      7 N          63.7197   89.3976   13.0460 N.ar    1  UNL1       -0.2944
      8 C          63.1549   88.1038   12.5390 C.ar    1  UNL1        0.1672
      9 N          63.3088   86.6882   13.0104 N.ar    1  UNL1       -0.2077
     10 N          63.2234   79.9141   14.1739 N.pl3   1  UNL1       -0.3274
     11 C          63.0694   81.3297   13.7023 C.ar    1  UNL1        0.2137
     12 N          63.0041   82.4492   14.6985 N.ar    1  UNL1       -0.2123
     13 C          62.8501   83.8648   14.2269 C.ar    1  UNL1        0.1064
     14 C          62.7615   84.1609   12.7591 C.ar    1  UNL1        0.0743
     15 C          62.8268   83.0415   11.7630 C.ar    1  UNL1        0.1064
     16 N          62.9808   81.6258   12.2345 N.ar    1  UNL1       -0.2123
     17 H          63.2815   79.7198   15.1372 H       1  UNL1        0.1452
     18 H          63.2663   79.1794   13.5200 H       1  UNL1        0.1452
     19 N          60.7432   87.6001    9.4276 N.pl3   1  UNL1       -0.2868
     20 C          60.5250   89.0224    9.0039 C.3     1  UNL1        0.1243
     21 C          59.6698   89.3264    7.8096 C.3     1  UNL1        0.1636
     22 O          59.0329   88.2080    7.0391 O.3     1  UNL1       -0.3501
     23 C          59.2512   86.7858    7.4628 C.3     1  UNL1        0.1636
     24 C          60.1064   86.4818    8.6571 C.3     1  UNL1        0.1243
     25 C          64.6307   89.5595   14.2267 C.3     1  UNL1        0.1090
     26 C          64.0818   90.0405   15.5372 C.3     1  UNL1        0.0246
     27 C          64.0447   91.5089   15.8410 C.3     1  UNL1        0.0020
     28 C          65.2083   92.1628   16.5252 C.3     1  UNL1        0.0006
     29 C          66.3506   92.6992   15.7143 C.3     1  UNL1        0.0096
     30 C          66.3202   92.5992   14.2180 C.3     1  UNL1        0.0871
     31 C          67.5938   92.3873   13.4544 C.2     1  UNL1        0.2443
     32 O          67.5825   92.4144   11.9547 O.2     1  UNL1       -0.2730
     33 N          68.8786   92.1482   14.1905 N.am    1  UNL1       -0.1970
     34 O          70.1523   91.9363   13.4270 O.3     1  UNL1       -0.2952
     35 H          68.8860   92.1304   15.1749 H       1  UNL1        0.1822
     36 H          69.9705   91.9844   12.4754 H       1  UNL1        0.2414
@<TRIPOS>BOND
     1    10    11    1
     2    11    12   ar
     3    12    13   ar
     4    13    14   ar
     5    14     1    1
     6     1     2   ar
     7     2     3   ar
     8     3    19    1
     9    19    20    1
    10    20    21    1
    11    21    22    1
    12    22    23    1
    13    23    24    1
    14     3     4   ar
    15     4     5   ar
    16     5     6   ar
    17     6     7   ar
    18     7    25    1
    19    25    26    1
    20    26    27    1
    21    27    28    1
    22    28    29    1
    23    29    30    1
    24    30    31    1
    25    31    32    2
    26    31    33   am
    27    33    34    1
    28     7     8   ar
    29     8     9   ar
    30    14    15   ar
    31    15    16   ar
    32    16    11   ar
    33     9     1   ar
    34    24    19    1
    35     8     4   ar
    36    10    17    1
    37    10    18    1
    38    33    35    1
    39    34    36    1
@<TRIPOS>MOLECULE
*****
 36 39 0 0 0
SMALL
GASTEIGER

@<TRIPOS>ATOM
      1 C          63.5002   87.0955   13.1742 C.ar    1  UNL1        0.1683
      2 N          64.1252   88.0990   14.0973 N.ar    1  UNL1       -0.2101
      3 C          64.0602   89.5615   13.7702 C.ar    1  UNL1        0.1543
      4 C          63.3702   90.0204   12.5199 C.ar    1  UNL1        0.1485
      5 N          63.1488   91.3855   11.9391 N.ar    1  UNL1       -0.2194
      6 C          62.3869   91.2257   10.6569 C.ar    1  UNL1        0.1798
      7 N          62.1375   89.7618   10.4453 N.ar    1  UNL1       -0.2944
      8 C          62.7452   89.0169   11.5968 C.ar    1  UNL1        0.1672
      9 N          62.8102   87.5544   11.9239 N.ar    1  UNL1       -0.2077
     10 N          63.7600   81.2456   14.4823 N.pl3   1  UNL1       -0.3274
     11 C          63.6951   82.7081   14.1553 C.ar    1  UNL1        0.2137
     12 N          63.3026   83.1518   12.7772 N.ar    1  UNL1       -0.2123
     13 C          63.2376   84.6142   12.4502 C.ar    1  UNL1        0.1064
     14 C          63.5652   85.6330   13.5013 C.ar    1  UNL1        0.0743
     15 C          63.9576   85.1894   14.8793 C.ar    1  UNL1        0.1064
     16 N          64.0226   83.7269   15.2064 N.ar    1  UNL1       -0.2123
     17 H          63.5450   80.5769   13.7925 H       1  UNL1        0.1452
     18 H          64.0176   80.9544   15.3868 H       1  UNL1        0.1452
     19 N          64.6853   90.5650   14.6935 N.pl3   1  UNL1       -0.2868
     20 C          63.9295   91.0522   15.8941 C.3     1  UNL1        0.1243
     21 C          64.5545   92.0557   16.8174 C.3     1  UNL1        0.1636
     22 O          65.9352   92.5720   16.5400 O.3     1  UNL1       -0.3501
     23 C          66.6909   92.0848   15.3394 C.3     1  UNL1        0.1636
     24 C          66.0660   91.0813   14.4161 C.3     1  UNL1        0.1243
     25 C          61.4083   89.1502    9.2859 C.3     1  UNL1        0.1090
     26 C          60.2985   88.1711    9.5300 C.3     1  UNL1        0.0246
     27 C          59.9287   87.1769    8.4695 C.3     1  UNL1        0.0020
     28 C          59.3432   87.6478    7.1713 C.3     1  UNL1        0.0006
     29 C          58.7798   89.0337    7.0614 C.3     1  UNL1        0.0096
     30 C          59.1260   89.8927    5.8815 C.3     1  UNL1        0.0871
     31 C          58.1440   90.9097    5.3803 C.2     1  UNL1        0.2443
     32 O          58.6218   92.2643    4.9481 O.2     1  UNL1       -0.2730
     33 N          56.6842   90.5722    5.3112 N.am    1  UNL1       -0.1970
     34 O          55.7021   91.5892    4.8100 O.3     1  UNL1       -0.2952
     35 H          56.3705   89.6831    5.5948 H       1  UNL1        0.1822
     36 H          56.1725   92.4041    4.5741 H       1  UNL1        0.2414
@<TRIPOS>BOND
     1    10    11    1
     2    11    12   ar
     3    12    13   ar
     4    13    14   ar
     5    14     1    1
     6     1     2   ar
     7     2     3   ar
     8     3    19    1
     9    19    20    1
    10    20    21    1
    11    21    22    1
    12    22    23    1
    13    23    24    1
    14     3     4   ar
    15     4     5   ar
    16     5     6   ar
    17     6     7   ar
    18     7    25    1
    19    25    26    1
    20    26    27    1
    21    27    28    1
    22    28    29    1
    23    29    30    1
    24    30    31    1
    25    31    32    2
    26    31    33   am
    27    33    34    1
    28     7     8   ar
    29     8     9   ar
    30    14    15   ar
    31    15    16   ar
    32    16    11   ar
    33     9     1   ar
    34    24    19    1
    35     8     4   ar
    36    10    17    1
    37    10    18    1
    38    33    35    1
    39    34    36    1
@<TRIPOS>MOLECULE
*****
 36 39 0 0 0
SMALL
GASTEIGER

@<TRIPOS>ATOM
      1 C          63.3561   88.4265   13.4522 C.ar    1  UNL1        0.1683
      2 N          63.6152   86.9857   13.7788 N.ar    1  UNL1       -0.2101
      3 C          63.1592   85.9096   12.8385 C.ar    1  UNL1        0.1543
      4 C          62.4440   86.2746   11.5715 C.ar    1  UNL1        0.1485
      5 N          61.8810   85.4389   10.4604 N.ar    1  UNL1       -0.2194
      6 C          61.2739   86.3633    9.4470 C.ar    1  UNL1        0.1798
      7 N          61.4617   87.7703    9.9318 N.ar    1  UNL1       -0.2944
      8 C          62.1849   87.7155   11.2448 C.ar    1  UNL1        0.1672
      9 N          62.6409   88.7914   12.1852 N.ar    1  UNL1       -0.2077
     10 N          65.1801   92.7305   17.2137 N.pl3   1  UNL1       -0.3274
     11 C          64.7241   91.6545   16.2733 C.ar    1  UNL1        0.2137
     12 N          63.5293   90.8152   16.6167 N.ar    1  UNL1       -0.2123
     13 C          63.0733   89.7393   15.6763 C.ar    1  UNL1        0.1064
     14 C          63.8122   89.5026   14.3926 C.ar    1  UNL1        0.0743
     15 C          65.0070   90.3418   14.0492 C.ar    1  UNL1        0.1064
     16 N          65.4630   91.4178   14.9896 N.ar    1  UNL1       -0.2123
     17 H          64.6952   92.8859   18.0563 H       1  UNL1        0.1452
     18 H          65.9644   93.2814   16.9883 H       1  UNL1        0.1452
     19 N          63.4184   84.4687   13.1652 N.pl3   1  UNL1       -0.2868
     20 C          64.2381   83.6246   12.2349 C.3     1  UNL1        0.1243
     21 C          64.4973   82.1837   12.5616 C.3     1  UNL1        0.1636
     22 O          63.9368   81.5871   13.8184 O.3     1  UNL1       -0.3501
     23 C          63.1170   82.4312   14.7487 C.3     1  UNL1        0.1636
     24 C          62.8578   83.8721   14.4220 C.3     1  UNL1        0.1243
     25 C          61.0062   89.0138    9.2273 C.3     1  UNL1        0.1090
     26 C          61.3828   90.3619    9.7665 C.3     1  UNL1        0.0246
     27 C          62.7790   90.8791    9.5846 C.3     1  UNL1        0.0020
     28 C          63.4639   91.6002   10.7075 C.3     1  UNL1        0.0006
     29 C          64.7877   92.2660   10.4745 C.3     1  UNL1        0.0096
     30 C          65.5996   92.7492   11.6395 C.3     1  UNL1        0.0871
     31 C          67.0795   92.5068   11.6744 C.2     1  UNL1        0.2443
     32 O          67.9030   92.7151   10.4381 O.2     1  UNL1       -0.2730
     33 N          67.7359   92.0560   12.9455 N.am    1  UNL1       -0.1970
     34 O          69.2157   91.8135   12.9804 O.3     1  UNL1       -0.2952
     35 H          67.1954   91.9192   13.7569 H       1  UNL1        0.1822
     36 H          69.5935   91.9933   12.1053 H       1  UNL1        0.2414
@<TRIPOS>BOND
     1    10    11    1
     2    11    12   ar
     3    12    13   ar
     4    13    14   ar
     5    14     1    1
     6     1     2   ar
     7     2     3   ar
     8     3    19    1
     9    19    20    1
    10    20    21    1
    11    21    22    1
    12    22    23    1
    13    23    24    1
    14     3     4   ar
    15     4     5   ar
    16     5     6   ar
    17     6     7   ar
    18     7    25    1
    19    25    26    1
    20    26    27    1
    21    27    28    1
    22    28    29    1
    23    29    30    1
    24    30    31    1
    25    31    32    2
    26    31    33   am
    27    33    34    1
    28     7     8   ar
    29     8     9   ar
    30    14    15   ar
    31    15    16   ar
    32    16    11   ar
    33     9     1   ar
    34    24    19    1
    35     8     4   ar
    36    10    17    1
    37    10    18    1
    38    33    35    1
    39    34    36    1
@<TRIPOS>MOLECULE
*****
 36 39 0 0 0
SMALL
GASTEIGER

@<TRIPOS>ATOM
      1 C          63.1068   86.5179   12.7097 C.ar    1  UNL1        0.1683
      2 N          63.7004   87.5935   13.5702 N.ar    1  UNL1       -0.2101
      3 C          63.5212   89.0357   13.1987 C.ar    1  UNL1        0.1543
      4 C          62.7483   89.4022   11.9665 C.ar    1  UNL1        0.1485
      5 N          62.4089   90.7278   11.3519 N.ar    1  UNL1       -0.2194
      6 C          61.6056   90.4713   10.1114 C.ar    1  UNL1        0.1798
      7 N          61.4484   88.9874    9.9593 N.ar    1  UNL1       -0.2944
      8 C          62.1547   88.3266   11.1059 C.ar    1  UNL1        0.1672
      9 N          62.3340   86.8845   11.4775 N.ar    1  UNL1       -0.2077
     10 N          63.8239   80.7493   14.1959 N.pl3   1  UNL1       -0.3274
     11 C          63.6446   82.1914   13.8243 C.ar    1  UNL1        0.2137
     12 N          63.9123   83.2656   14.8365 N.ar    1  UNL1       -0.2123
     13 C          63.7330   84.7077   14.4649 C.ar    1  UNL1        0.1064
     14 C          63.2861   85.0757   13.0812 C.ar    1  UNL1        0.0743
     15 C          63.0184   84.0016   12.0690 C.ar    1  UNL1        0.1064
     16 N          63.1977   82.5594   12.4406 N.ar    1  UNL1       -0.2123
     17 H          64.1172   80.5078   15.1041 H       1  UNL1        0.1452
     18 H          63.6482   80.0443   13.5316 H       1  UNL1        0.1452
     19 N          64.1148   90.1113   14.0594 N.pl3   1  UNL1       -0.2868
     20 C          65.2408   90.9536   13.5372 C.3     1  UNL1        0.1243
     21 C          65.8345   92.0292   14.3978 C.3     1  UNL1        0.1636
     22 O          65.3022   92.2624   15.7806 O.3     1  UNL1       -0.3501
     23 C          64.1762   91.4201   16.3028 C.3     1  UNL1        0.1636
     24 C          63.5825   90.3445   15.4422 C.3     1  UNL1        0.1243
     25 C          60.7140   88.2871    8.8547 C.3     1  UNL1        0.1090
     26 C          59.4960   88.9171    8.2466 C.3     1  UNL1        0.0246
     27 C          59.3530   88.9866    6.7552 C.3     1  UNL1        0.0020
     28 C          59.8068   90.2093    6.0143 C.3     1  UNL1        0.0006
     29 C          58.8331   90.9826    5.1754 C.3     1  UNL1        0.0096
     30 C          59.2003   92.3437    4.6627 C.3     1  UNL1        0.0871
     31 C          59.9077   92.4840    3.3475 C.2     1  UNL1        0.2443
     32 O          61.3945   92.3000    3.2722 O.2     1  UNL1       -0.2730
     33 N          59.1284   92.8083    2.1076 N.am    1  UNL1       -0.1970
     34 O          59.8359   92.9486    0.7923 O.3     1  UNL1       -0.2952
     35 H          58.1526   92.9291    2.1570 H       1  UNL1        0.1822
     36 H          60.7860   92.7999    0.9188 H       1  UNL1        0.2414
@<TRIPOS>BOND
     1    10    11    1
     2    11    12   ar
     3    12    13   ar
     4    13    14   ar
     5    14     1    1
     6     1     2   ar
     7     2     3   ar
     8     3    19    1
     9    19    20    1
    10    20    21    1
    11    21    22    1
    12    22    23    1
    13    23    24    1
    14     3     4   ar
    15     4     5   ar
    16     5     6   ar
    17     6     7   ar
    18     7    25    1
    19    25    26    1
    20    26    27    1
    21    27    28    1
    22    28    29    1
    23    29    30    1
    24    30    31    1
    25    31    32    2
    26    31    33   am
    27    33    34    1
    28     7     8   ar
    29     8     9   ar
    30    14    15   ar
    31    15    16   ar
    32    16    11   ar
    33     9     1   ar
    34    24    19    1
    35     8     4   ar
    36    10    17    1
    37    10    18    1
    38    33    35    1
    39    34    36    1
