@<TRIPOS>MOLECULE
*****
 35 40 0 0 0
SMALL
GASTEIGER

@<TRIPOS>ATOM
      1 C          63.5362   89.9146   13.3871 C.3     1  UNL1        0.1412
      2 N          64.4213   91.0829   13.0680 N.3     1  UNL1       -0.2630
      3 C          65.3006   91.5578   14.1867 C.3     1  UNL1        0.0742
      4 C          66.2859   92.6890   14.1860 C.3     1  UNL1        0.0347
      5 C          66.6351   93.6243   13.0667 C.3     1  UNL1        0.0735
      6 N          66.0854   93.6598   11.6715 N.3     1  UNL1       -0.2727
      7 C          65.0507   92.7685   11.0511 C.3     1  UNL1        0.0896
      8 C          64.3101   91.6217   11.6726 C.3     1  UNL1        0.0902
      9 C          66.6443   94.7277   10.7787 C.3     1  UNL1        0.0575
     10 C          67.5262   94.7416    9.5654 C.3     1  UNL1        0.0160
     11 C          67.4348   96.2380    9.5160 C.3     1  UNL1        0.0028
     12 C          66.5530   96.2242   10.7293 C.3     1  UNL1        0.0160
     13 C          62.7534   89.2466   12.2959 C.ar    1  UNL1       -0.0004
     14 C          63.1802   87.9041   11.7807 C.ar    1  UNL1       -0.0010
     15 C          62.3973   87.2361   10.6894 C.ar    1  UNL1        0.0189
     16 C          61.1877   87.9105   10.1133 C.ar    1  UNL1        0.0846
     17 C          60.7609   89.2530   10.6285 C.ar    1  UNL1        0.0189
     18 C          61.5437   89.9211   11.7198 C.ar    1  UNL1       -0.0010
     19 N          60.4049   87.2424    9.0220 N.ar    1  UNL1       -0.2079
     20 C          60.8565   86.0683    8.2049 C.ar    1  UNL1        0.2016
     21 N          59.7638   85.7314    7.2342 N.ar    1  UNL1       -0.2004
     22 C          58.6369   86.6972    7.4512 C.ar    1  UNL1        0.2214
     23 N          59.0332   87.6311    8.5562 N.ar    1  UNL1       -0.1409
     24 N          63.8602   88.0620   15.2866 N.ar    1  UNL1       -0.2108
     25 N          63.5772   87.9906   16.7579 N.ar    1  UNL1       -0.0428
     26 N          62.9761   89.2990   17.1782 N.ar    1  UNL1       -0.0229
     27 N          62.8875   90.1790   15.9667 N.ar    1  UNL1       -0.1110
     28 C          63.4340   89.4145   14.7976 C.ar    1  UNL1        0.1798
     29 C          64.4635   86.9722   14.4509 C.3     1  UNL1        0.1570
     30 C          62.5726   82.8894   14.3715 C.ar    1  UNL1       -0.0000
     31 C          62.6532   83.6538   15.6597 C.ar    1  UNL1       -0.0003
     32 C          63.2834   85.0147   15.6861 C.ar    1  UNL1       -0.0023
     33 C          63.8332   85.6112   14.4244 C.ar    1  UNL1        0.0022
     34 C          63.7527   84.8469   13.1363 C.ar    1  UNL1       -0.0023
     35 C          63.1224   83.4861   13.1099 C.ar    1  UNL1       -0.0003
@<TRIPOS>BOND
     1    30    31   ar
     2    31    32   ar
     3    32    33   ar
     4    33    29    1
     5    29    24    1
     6    24    25   ar
     7    25    26   ar
     8    26    27   ar
     9    27    28   ar
    10    28     1    1
    11     1    13    1
    12    13    14   ar
    13    14    15   ar
    14    15    16   ar
    15    16    19    1
    16    19    20   ar
    17    20    21   ar
    18    21    22   ar
    19    22    23   ar
    20    16    17   ar
    21    17    18   ar
    22     1     2    1
    23     2     3    1
    24     3     4    1
    25     4     5    1
    26     5     6    1
    27     6     9    1
    28     9    10    1
    29    10    11    1
    30    11    12    1
    31     6     7    1
    32     7     8    1
    33    33    34   ar
    34    34    35   ar
    35    35    30   ar
    36    28    24   ar
    37    18    13   ar
    38     8     2    1
    39    23    19   ar
    40    12     9    1
@<TRIPOS>MOLECULE
*****
 35 40 0 0 0
SMALL
GASTEIGER

@<TRIPOS>ATOM
      1 C          62.4213   89.3319   12.2851 C.3     1  UNL1        0.1412
      2 N          62.9723   88.0230   12.7680 N.3     1  UNL1       -0.2630
      3 C          63.9075   88.1026   13.9381 C.3     1  UNL1        0.0742
      4 C          64.6167   86.9863   14.6461 C.3     1  UNL1        0.0347
      5 C          64.5657   85.5151   14.3590 C.3     1  UNL1        0.0735
      6 N          63.7930   84.7964   13.2929 N.3     1  UNL1       -0.2727
      7 C          62.8804   85.3717   12.2506 C.3     1  UNL1        0.0896
      8 C          62.5152   86.8077   12.0171 C.3     1  UNL1        0.0902
      9 C          63.9542   83.3054   13.2655 C.3     1  UNL1        0.0575
     10 C          63.6016   82.1830   14.1962 C.3     1  UNL1        0.0160
     11 C          64.1821   81.1966   13.2267 C.3     1  UNL1        0.0028
     12 C          64.5347   82.3189   12.2959 C.3     1  UNL1        0.0160
     13 C          63.3540   90.4309   11.8702 C.ar    1  UNL1       -0.0004
     14 C          64.2659   91.0619   12.8802 C.ar    1  UNL1       -0.0010
     15 C          65.1986   92.1610   12.4652 C.ar    1  UNL1        0.0189
     16 C          65.2193   92.6290   11.0403 C.ar    1  UNL1        0.0846
     17 C          64.3074   91.9980   10.0302 C.ar    1  UNL1        0.0189
     18 C          63.3747   90.8990   10.4451 C.ar    1  UNL1       -0.0010
     19 N          66.1520   93.7281   10.6253 N.ar    1  UNL1       -0.2079
     20 C          67.4233   93.5589    9.8472 C.ar    1  UNL1        0.2016
     21 N          68.0341   94.9155    9.6567 N.ar    1  UNL1       -0.2004
     22 C          67.1405   95.9232   10.3169 C.ar    1  UNL1        0.2214
     23 N          65.9773   95.1893   10.9156 N.ar    1  UNL1       -0.1409
     24 N          60.1132   89.6103   10.9658 N.ar    1  UNL1       -0.2108
     25 N          58.6839   89.8308   11.3639 N.ar    1  UNL1       -0.0428
     26 N          58.6249   89.8984   12.8612 N.ar    1  UNL1       -0.0229
     27 N          60.0178   89.7198   13.3885 N.ar    1  UNL1       -0.1110
     28 C          60.9376   89.5417   12.2171 C.ar    1  UNL1        0.1798
     29 C          60.6279   89.4811    9.5628 C.3     1  UNL1        0.1570
     30 C          60.6387   85.4659    7.5311 C.ar    1  UNL1       -0.0000
     31 C          59.4379   86.3583    7.4223 C.ar    1  UNL1       -0.0003
     32 C          59.4343   87.6966    8.0996 C.ar    1  UNL1       -0.0023
     33 C          60.6315   88.1427    8.8855 C.ar    1  UNL1        0.0022
     34 C          61.8323   87.2504    8.9943 C.ar    1  UNL1       -0.0023
     35 C          61.8358   85.9120    8.3171 C.ar    1  UNL1       -0.0003
@<TRIPOS>BOND
     1    30    31   ar
     2    31    32   ar
     3    32    33   ar
     4    33    29    1
     5    29    24    1
     6    24    25   ar
     7    25    26   ar
     8    26    27   ar
     9    27    28   ar
    10    28     1    1
    11     1    13    1
    12    13    14   ar
    13    14    15   ar
    14    15    16   ar
    15    16    19    1
    16    19    20   ar
    17    20    21   ar
    18    21    22   ar
    19    22    23   ar
    20    16    17   ar
    21    17    18   ar
    22     1     2    1
    23     2     3    1
    24     3     4    1
    25     4     5    1
    26     5     6    1
    27     6     9    1
    28     9    10    1
    29    10    11    1
    30    11    12    1
    31     6     7    1
    32     7     8    1
    33    33    34   ar
    34    34    35   ar
    35    35    30   ar
    36    28    24   ar
    37    18    13   ar
    38     8     2    1
    39    23    19   ar
    40    12     9    1
@<TRIPOS>MOLECULE
*****
 35 40 0 0 0
SMALL
GASTEIGER

@<TRIPOS>ATOM
      1 C          63.2064   89.9469   12.8472 C.3     1  UNL1        0.1412
      2 N          62.3494   89.1494   11.9093 N.3     1  UNL1       -0.2630
      3 C          60.8714   89.2265   12.1535 C.3     1  UNL1        0.0742
      4 C          59.7626   88.5535   11.3998 C.3     1  UNL1        0.0347
      5 C          59.8581   87.6373   10.2161 C.3     1  UNL1        0.0735
      6 N          61.0859   87.1678    9.4934 N.3     1  UNL1       -0.2727
      7 C          62.5214   87.4985    9.7761 C.3     1  UNL1        0.0896
      8 C          63.0836   88.3804   10.8513 C.3     1  UNL1        0.0902
      9 C          60.8464   86.2456    8.3349 C.3     1  UNL1        0.0575
     10 C          59.6830   85.9541    7.4341 C.3     1  UNL1        0.0160
     11 C          60.5078   84.9414    6.6964 C.3     1  UNL1        0.0028
     12 C          61.6713   85.2328    7.5972 C.3     1  UNL1        0.0160
     13 C          63.9997   91.1110   12.3321 C.ar    1  UNL1       -0.0004
     14 C          65.0010   91.7881   13.2203 C.ar    1  UNL1       -0.0010
     15 C          65.7943   92.9523   12.7050 C.ar    1  UNL1        0.0189
     16 C          65.5863   93.4394   11.3017 C.ar    1  UNL1        0.0846
     17 C          64.5849   92.7623   10.4135 C.ar    1  UNL1        0.0189
     18 C          63.7916   91.5982   10.9286 C.ar    1  UNL1       -0.0010
     19 N          66.3796   94.6036   10.7866 N.ar    1  UNL1       -0.2079
     20 C          67.4676   94.5420    9.7558 C.ar    1  UNL1        0.2016
     21 N          67.9846   95.9340    9.5439 N.ar    1  UNL1       -0.2004
     22 C          67.2162   96.8559   10.4437 C.ar    1  UNL1        0.2214
     23 N          66.2242   96.0335   11.2117 N.ar    1  UNL1       -0.1409
     24 N          63.8630   88.3245   14.8676 N.ar    1  UNL1       -0.2108
     25 N          63.7112   88.3730   16.3591 N.ar    1  UNL1       -0.0428
     26 N          63.0244   89.6585   16.7136 N.ar    1  UNL1       -0.0229
     27 N          62.7517   90.4046   15.4412 N.ar    1  UNL1       -0.1110
     28 C          63.2699   89.5802   14.3003 C.ar    1  UNL1        0.1798
     29 C          64.4965   87.2153   14.0814 C.3     1  UNL1        0.1570
     30 C          62.6523   83.1105   14.0942 C.ar    1  UNL1       -0.0000
     31 C          62.5701   83.9659   12.8647 C.ar    1  UNL1       -0.0003
     32 C          63.1848   85.3341   12.8604 C.ar    1  UNL1       -0.0023
     33 C          63.8818   85.8470   14.0856 C.ar    1  UNL1        0.0022
     34 C          63.9640   84.9917   15.3152 C.ar    1  UNL1       -0.0023
     35 C          63.3493   83.6235   15.3194 C.ar    1  UNL1       -0.0003
@<TRIPOS>BOND
     1    30    31   ar
     2    31    32   ar
     3    32    33   ar
     4    33    29    1
     5    29    24    1
     6    24    25   ar
     7    25    26   ar
     8    26    27   ar
     9    27    28   ar
    10    28     1    1
    11     1    13    1
    12    13    14   ar
    13    14    15   ar
    14    15    16   ar
    15    16    19    1
    16    19    20   ar
    17    20    21   ar
    18    21    22   ar
    19    22    23   ar
    20    16    17   ar
    21    17    18   ar
    22     1     2    1
    23     2     3    1
    24     3     4    1
    25     4     5    1
    26     5     6    1
    27     6     9    1
    28     9    10    1
    29    10    11    1
    30    11    12    1
    31     6     7    1
    32     7     8    1
    33    33    34   ar
    34    34    35   ar
    35    35    30   ar
    36    28    24   ar
    37    18    13   ar
    38     8     2    1
    39    23    19   ar
    40    12     9    1
@<TRIPOS>MOLECULE
*****
 35 40 0 0 0
SMALL
GASTEIGER

@<TRIPOS>ATOM
      1 C          62.5096   89.1142   12.3237 C.3     1  UNL1        0.1412
      2 N          63.6438   90.0505   12.6186 N.3     1  UNL1       -0.2630
      3 C          63.9655   91.0429   11.5407 C.3     1  UNL1        0.0742
      4 C          65.0292   92.1006   11.5305 C.3     1  UNL1        0.0347
      5 C          66.0337   92.4269   12.5953 C.3     1  UNL1        0.0735
      6 N          66.2230   91.7764   13.9336 N.3     1  UNL1       -0.2727
      7 C          65.4542   90.6387   14.5375 C.3     1  UNL1        0.0896
      8 C          64.3063   89.8706   13.9522 C.3     1  UNL1        0.0902
      9 C          67.3268   92.3377   14.7799 C.3     1  UNL1        0.0575
     10 C          68.8209   92.4075   14.6649 C.3     1  UNL1        0.0160
     11 C          68.8881   93.1316   15.9768 C.3     1  UNL1        0.0028
     12 C          67.3941   93.0618   16.0919 C.3     1  UNL1        0.0160
     13 C          62.6912   87.6361   12.5033 C.ar    1  UNL1       -0.0004
     14 C          61.8954   86.6759   11.6698 C.ar    1  UNL1       -0.0010
     15 C          62.0771   85.1978   11.8495 C.ar    1  UNL1        0.0189
     16 C          63.0543   84.6799   12.8627 C.ar    1  UNL1        0.0846
     17 C          63.8501   85.6401   13.6963 C.ar    1  UNL1        0.0189
     18 C          63.6685   87.1182   13.5166 C.ar    1  UNL1       -0.0010
     19 N          63.2359   83.2018   13.0424 N.ar    1  UNL1       -0.2079
     20 C          63.8564   82.5276   14.2301 C.ar    1  UNL1        0.2016
     21 N          63.8328   81.0476   13.9876 N.ar    1  UNL1       -0.2004
     22 C          63.1978   80.8070   12.6502 C.ar    1  UNL1        0.2214
     23 N          62.8289   82.1384   12.0660 N.ar    1  UNL1       -0.1409
     24 N          60.7300   89.7222   10.4242 N.ar    1  UNL1       -0.2108
     25 N          59.3604   90.3339   10.4105 N.ar    1  UNL1       -0.0428
     26 N          58.9780   90.6458   11.8270 N.ar    1  UNL1       -0.0229
     27 N          60.1111   90.2268   12.7161 N.ar    1  UNL1       -0.1110
     28 C          61.1939   89.6560   11.8491 C.ar    1  UNL1        0.1798
     29 C          61.5004   89.2582    9.2237 C.3     1  UNL1        0.1570
     30 C          60.6451   85.2237    7.4231 C.ar    1  UNL1       -0.0000
     31 C          59.5757   86.2753    7.4493 C.ar    1  UNL1       -0.0003
     32 C          59.8608   87.6201    8.0495 C.ar    1  UNL1       -0.0023
     33 C          61.2153   87.9133    8.6235 C.ar    1  UNL1        0.0022
     34 C          62.2846   86.8618    8.5973 C.ar    1  UNL1       -0.0023
     35 C          61.9995   85.5170    7.9971 C.ar    1  UNL1       -0.0003
@<TRIPOS>BOND
     1    30    31   ar
     2    31    32   ar
     3    32    33   ar
     4    33    29    1
     5    29    24    1
     6    24    25   ar
     7    25    26   ar
     8    26    27   ar
     9    27    28   ar
    10    28     1    1
    11     1    13    1
    12    13    14   ar
    13    14    15   ar
    14    15    16   ar
    15    16    19    1
    16    19    20   ar
    17    20    21   ar
    18    21    22   ar
    19    22    23   ar
    20    16    17   ar
    21    17    18   ar
    22     1     2    1
    23     2     3    1
    24     3     4    1
    25     4     5    1
    26     5     6    1
    27     6     9    1
    28     9    10    1
    29    10    11    1
    30    11    12    1
    31     6     7    1
    32     7     8    1
    33    33    34   ar
    34    34    35   ar
    35    35    30   ar
    36    28    24   ar
    37    18    13   ar
    38     8     2    1
    39    23    19   ar
    40    12     9    1
@<TRIPOS>MOLECULE
*****
 35 40 0 0 0
SMALL
GASTEIGER

@<TRIPOS>ATOM
      1 C          62.8891   88.4801   12.7280 C.3     1  UNL1        0.1412
      2 N          63.1208   87.0128   12.9359 N.3     1  UNL1       -0.2630
      3 C          64.0554   86.6534   14.0529 C.3     1  UNL1        0.0742
      4 C          64.4873   85.2913   14.5092 C.3     1  UNL1        0.0347
      5 C          64.0914   83.9523   13.9613 C.3     1  UNL1        0.0735
      6 N          63.1658   83.6446   12.8217 N.3     1  UNL1       -0.2727
      7 C          62.4075   84.5999   11.9486 C.3     1  UNL1        0.0896
      8 C          62.3875   86.0989   11.9995 C.3     1  UNL1        0.0902
      9 C          62.9730   82.1891   12.5147 C.3     1  UNL1        0.0575
     10 C          62.6247   80.9722   13.3198 C.3     1  UNL1        0.0160
     11 C          62.7003   80.1306   12.0805 C.3     1  UNL1        0.0028
     12 C          63.0485   81.3474   11.2753 C.3     1  UNL1        0.0160
     13 C          63.8875   89.4767   13.2377 C.ar    1  UNL1       -0.0004
     14 C          64.5948   89.2321   14.5377 C.ar    1  UNL1       -0.0010
     15 C          65.5933   90.2288   15.0473 C.ar    1  UNL1        0.0189
     16 C          65.8844   91.4701   14.2571 C.ar    1  UNL1        0.0846
     17 C          65.1771   91.7147   12.9572 C.ar    1  UNL1        0.0189
     18 C          64.1787   90.7181   12.4474 C.ar    1  UNL1       -0.0010
     19 N          66.8829   92.4667   14.7669 N.ar    1  UNL1       -0.2079
     20 C          66.9418   93.9208   14.4031 C.ar    1  UNL1        0.2016
     21 N          68.0930   94.5369   15.1412 N.ar    1  UNL1       -0.2004
     22 C          68.7456   93.4639   15.9613 C.ar    1  UNL1        0.2214
     23 N          67.9977   92.1843   15.7298 N.ar    1  UNL1       -0.1409
     24 N          61.4079   88.8543   10.5345 N.ar    1  UNL1       -0.2108
     25 N          60.0576   89.4445   10.2545 N.ar    1  UNL1       -0.0428
     26 N          59.4741   89.9057   11.5571 N.ar    1  UNL1       -0.0229
     27 N          60.4638   89.6007   12.6422 N.ar    1  UNL1       -0.1110
     28 C          61.6589   88.9508   12.0103 C.ar    1  UNL1        0.1798
     29 C          62.3429   88.2701    9.5175 C.3     1  UNL1        0.1570
     30 C          61.0504   84.7466    7.0347 C.ar    1  UNL1       -0.0000
     31 C          60.0560   85.8055    7.4090 C.ar    1  UNL1       -0.0003
     32 C          60.4869   86.9800    8.2365 C.ar    1  UNL1       -0.0023
     33 C          61.9120   87.0956    8.6899 C.ar    1  UNL1        0.0022
     34 C          62.9064   86.0367    8.3156 C.ar    1  UNL1       -0.0023
     35 C          62.4755   84.8623    7.4880 C.ar    1  UNL1       -0.0003
@<TRIPOS>BOND
     1    30    31   ar
     2    31    32   ar
     3    32    33   ar
     4    33    29    1
     5    29    24    1
     6    24    25   ar
     7    25    26   ar
     8    26    27   ar
     9    27    28   ar
    10    28     1    1
    11     1    13    1
    12    13    14   ar
    13    14    15   ar
    14    15    16   ar
    15    16    19    1
    16    19    20   ar
    17    20    21   ar
    18    21    22   ar
    19    22    23   ar
    20    16    17   ar
    21    17    18   ar
    22     1     2    1
    23     2     3    1
    24     3     4    1
    25     4     5    1
    26     5     6    1
    27     6     9    1
    28     9    10    1
    29    10    11    1
    30    11    12    1
    31     6     7    1
    32     7     8    1
    33    33    34   ar
    34    34    35   ar
    35    35    30   ar
    36    28    24   ar
    37    18    13   ar
    38     8     2    1
    39    23    19   ar
    40    12     9    1
@<TRIPOS>MOLECULE
*****
 35 40 0 0 0
SMALL
GASTEIGER

@<TRIPOS>ATOM
      1 C          62.4626   89.2957   12.1407 C.3     1  UNL1        0.1412
      2 N          63.5496   90.3270   12.0708 N.3     1  UNL1       -0.2630
      3 C          64.3640   90.4997   13.3186 C.3     1  UNL1        0.0742
      4 C          65.5085   91.4374   13.5661 C.3     1  UNL1        0.0347
      5 C          66.1211   92.4337   12.6271 C.3     1  UNL1        0.0735
      6 N          65.7407   92.7386   11.2085 N.3     1  UNL1       -0.2727
      7 C          64.6536   92.1225   10.3787 C.3     1  UNL1        0.0896
      8 C          63.6785   91.0492   10.7625 C.3     1  UNL1        0.0902
      9 C          66.5549   93.8000   10.5301 C.3     1  UNL1        0.0575
     10 C          66.6408   95.2945   10.6262 C.3     1  UNL1        0.0160
     11 C          67.7065   95.3012    9.5707 C.3     1  UNL1        0.0028
     12 C          67.6208   93.8067    9.4745 C.3     1  UNL1        0.0160
     13 C          62.8041   87.8647   12.4331 C.ar    1  UNL1       -0.0004
     14 C          63.7188   87.5299   13.5738 C.ar    1  UNL1       -0.0010
     15 C          64.0603   86.0987   13.8660 C.ar    1  UNL1        0.0189
     16 C          63.4871   85.0026   13.0176 C.ar    1  UNL1        0.0846
     17 C          62.5724   85.3374   11.8769 C.ar    1  UNL1        0.0189
     18 C          62.2309   86.7685   11.5846 C.ar    1  UNL1       -0.0010
     19 N          63.8286   83.5715   13.3100 N.ar    1  UNL1       -0.2079
     20 C          63.7654   82.9066   14.6531 C.ar    1  UNL1        0.2016
     21 N          64.1910   81.4783   14.4837 N.ar    1  UNL1       -0.2004
     22 C          64.5172   81.2604   13.0360 C.ar    1  UNL1        0.2214
     23 N          64.2932   82.5541   12.3105 N.ar    1  UNL1       -0.1409
     24 N          60.3375   89.7769   10.5924 N.ar    1  UNL1       -0.2108
     25 N          58.9242   90.2158   10.8374 N.ar    1  UNL1       -0.0428
     26 N          58.7474   90.4058   12.3147 N.ar    1  UNL1       -0.0229
     27 N          60.0514   90.0843   12.9828 N.ar    1  UNL1       -0.1110
     28 C          61.0341   89.6956   11.9183 C.ar    1  UNL1        0.1798
     29 C          60.9471   89.4726    9.2560 C.3     1  UNL1        0.1570
     30 C          60.3722   85.4175    7.3916 C.ar    1  UNL1       -0.0000
     31 C          59.2635   86.4271    7.3481 C.ar    1  UNL1       -0.0003
     32 C          59.4552   87.7787    7.9696 C.ar    1  UNL1       -0.0023
     33 C          60.7554   88.1209    8.6345 C.ar    1  UNL1        0.0022
     34 C          61.8641   87.1114    8.6780 C.ar    1  UNL1       -0.0023
     35 C          61.6724   85.7598    8.0565 C.ar    1  UNL1       -0.0003
@<TRIPOS>BOND
     1    30    31   ar
     2    31    32   ar
     3    32    33   ar
     4    33    29    1
     5    29    24    1
     6    24    25   ar
     7    25    26   ar
     8    26    27   ar
     9    27    28   ar
    10    28     1    1
    11     1    13    1
    12    13    14   ar
    13    14    15   ar
    14    15    16   ar
    15    16    19    1
    16    19    20   ar
    17    20    21   ar
    18    21    22   ar
    19    22    23   ar
    20    16    17   ar
    21    17    18   ar
    22     1     2    1
    23     2     3    1
    24     3     4    1
    25     4     5    1
    26     5     6    1
    27     6     9    1
    28     9    10    1
    29    10    11    1
    30    11    12    1
    31     6     7    1
    32     7     8    1
    33    33    34   ar
    34    34    35   ar
    35    35    30   ar
    36    28    24   ar
    37    18    13   ar
    38     8     2    1
    39    23    19   ar
    40    12     9    1
