@<TRIPOS>MOLECULE
*****
 26 29 0 0 0
SMALL
GASTEIGER

@<TRIPOS>ATOM
      1 N          63.9749   90.2554   12.7735 N.ar    1  UNL1       -0.3123
      2 C          64.3806   89.9871   14.1925 C.ar    1  UNL1        0.1213
      3 N          65.3239   91.0729   14.6180 N.ar    1  UNL1       -0.2309
      4 C          65.5012   92.0123   13.4620 C.ar    1  UNL1        0.0983
      5 C          66.3142   93.2624   13.3002 C.ar    1  UNL1        0.0206
      6 C          66.2933   94.0073   11.9984 C.ar    1  UNL1        0.0016
      7 C          65.4595   93.5020   10.8585 C.ar    1  UNL1        0.0016
      8 C          64.6466   92.2519   11.0203 C.ar    1  UNL1        0.0188
      9 C          64.6674   91.5070   12.3221 C.ar    1  UNL1        0.0787
     10 C          63.9233   88.8352   15.0375 C.3     1  UNL1        0.0729
     11 C          63.4491   89.0758   16.4401 C.3     1  UNL1        0.0103
     12 C          62.9918   87.9239   17.2851 C.3     1  UNL1        0.0178
     13 C          63.0086   86.5315   16.7276 C.3     1  UNL1        0.0721
     14 N          63.4828   86.2910   15.3250 N.3     1  UNL1       -0.2734
     15 C          63.9401   87.4428   14.4800 C.3     1  UNL1        0.0795
     16 C          63.4997   84.8985   14.7674 C.3     1  UNL1        0.0625
     17 C          64.5635   84.4949   13.7900 C.3     1  UNL1        0.0481
     18 C          64.5804   83.1025   13.2324 C.3     1  UNL1        0.1435
     19 O          63.5334   82.1137   13.6522 O.3     1  UNL1       -0.3537
     20 C          62.4696   82.5173   14.6296 C.3     1  UNL1        0.1435
     21 C          62.4527   83.9098   15.1872 C.3     1  UNL1        0.0481
     22 C          63.0405   89.4189   11.9505 C.3     1  UNL1        0.1392
     23 C          61.5824   89.7648   11.8872 C.3     1  UNL1        0.1666
     24 O          60.5523   88.6745   11.8848 O.3     1  UNL1       -0.3517
     25 C          61.2861   86.3214   11.0635 C.3     1  UNL1        0.0346
     26 C          60.5780   87.6207   10.8176 C.3     1  UNL1        0.1423
@<TRIPOS>BOND
     1    25    26    1
     2    26    24    1
     3    24    23    1
     4    23    22    1
     5    22     1    1
     6     1     2   ar
     7     2    10    1
     8    10    11    1
     9    11    12    1
    10    12    13    1
    11    13    14    1
    12    14    16    1
    13    16    17    1
    14    17    18    1
    15    18    19    1
    16    19    20    1
    17    20    21    1
    18    14    15    1
    19     2     3   ar
    20     3     4   ar
    21     4     5   ar
    22     5     6   ar
    23     6     7   ar
    24     7     8   ar
    25     8     9   ar
    26     9     1   ar
    27    15    10    1
    28     9     4   ar
    29    21    16    1
@<TRIPOS>MOLECULE
*****
 26 29 0 0 0
SMALL
GASTEIGER

@<TRIPOS>ATOM
      1 N          64.2165   90.2727   13.5936 N.ar    1  UNL1       -0.3123
      2 C          63.6063   90.1060   12.2335 C.ar    1  UNL1        0.1213
      3 N          64.0468   91.2605   11.3832 N.ar    1  UNL1       -0.2309
      4 C          64.9293   92.1407   12.2178 C.ar    1  UNL1        0.0983
      5 C          65.6509   93.4192   11.9102 C.ar    1  UNL1        0.0206
      6 C          66.4773   94.0873   12.9688 C.ar    1  UNL1        0.0016
      7 C          66.5822   93.4768   14.3350 C.ar    1  UNL1        0.0016
      8 C          65.8606   92.1983   14.6425 C.ar    1  UNL1        0.0188
      9 C          65.0342   91.5302   13.5839 C.ar    1  UNL1        0.0787
     10 C          62.7125   88.9821   11.7999 C.3     1  UNL1        0.0729
     11 C          61.4148   89.2797   11.1090 C.3     1  UNL1        0.0103
     12 C          60.5210   88.1558   10.6754 C.3     1  UNL1        0.0178
     13 C          60.9249   86.7343   10.9327 C.3     1  UNL1        0.0721
     14 N          62.2226   86.4367   11.6235 N.3     1  UNL1       -0.2734
     15 C          63.1164   87.5606   12.0572 C.3     1  UNL1        0.0795
     16 C          62.6266   85.0152   11.8808 C.3     1  UNL1        0.0625
     17 C          63.0513   84.1381   10.7405 C.3     1  UNL1        0.0481
     18 C          63.4552   82.7166   10.9977 C.3     1  UNL1        0.1435
     19 O          63.4345   82.1722   12.3953 O.3     1  UNL1       -0.3537
     20 C          63.0099   83.0493   13.5357 C.3     1  UNL1        0.1435
     21 C          62.6059   84.4709   13.2784 C.3     1  UNL1        0.0481
     22 C          64.0400   89.3448   14.7589 C.3     1  UNL1        0.1392
     23 C          63.3993   89.8398   16.0215 C.3     1  UNL1        0.1666
     24 O          63.0849   88.8790   17.1297 O.3     1  UNL1       -0.3517
     25 C          62.6753   86.4467   17.9459 C.3     1  UNL1        0.0346
     26 C          63.0842   87.4026   16.8647 C.3     1  UNL1        0.1423
@<TRIPOS>BOND
     1    25    26    1
     2    26    24    1
     3    24    23    1
     4    23    22    1
     5    22     1    1
     6     1     2   ar
     7     2    10    1
     8    10    11    1
     9    11    12    1
    10    12    13    1
    11    13    14    1
    12    14    16    1
    13    16    17    1
    14    17    18    1
    15    18    19    1
    16    19    20    1
    17    20    21    1
    18    14    15    1
    19     2     3   ar
    20     3     4   ar
    21     4     5   ar
    22     5     6   ar
    23     6     7   ar
    24     7     8   ar
    25     8     9   ar
    26     9     1   ar
    27    15    10    1
    28     9     4   ar
    29    21    16    1
@<TRIPOS>MOLECULE
*****
 26 29 0 0 0
SMALL
GASTEIGER

@<TRIPOS>ATOM
      1 N          62.6684   85.2874   10.3193 N.ar    1  UNL1       -0.3123
      2 C          62.2864   86.1872   11.4571 C.ar    1  UNL1        0.1213
      3 N          62.2792   85.3680   12.7136 N.ar    1  UNL1       -0.2309
      4 C          62.6566   83.9619   12.3524 C.ar    1  UNL1        0.0983
      5 C          62.8124   82.7205   13.1798 C.ar    1  UNL1        0.0206
      6 C          63.2087   81.4293   12.5274 C.ar    1  UNL1        0.0016
      7 C          63.4492   81.3795   11.0476 C.ar    1  UNL1        0.0016
      8 C          63.2935   82.6209   10.2203 C.ar    1  UNL1        0.0188
      9 C          62.8972   83.9121   10.8727 C.ar    1  UNL1        0.0787
     10 C          61.9677   87.6495   11.3560 C.3     1  UNL1        0.0729
     11 C          60.5731   88.0920   11.0255 C.3     1  UNL1        0.0103
     12 C          60.2544   89.5543   10.9245 C.3     1  UNL1        0.0178
     13 C          61.3302   90.5740   11.1540 C.3     1  UNL1        0.0721
     14 N          62.7248   90.1315   11.4845 N.3     1  UNL1       -0.2734
     15 C          63.0435   88.6692   11.5855 C.3     1  UNL1        0.0795
     16 C          63.8007   91.1512   11.7139 C.3     1  UNL1        0.0625
     17 C          64.4140   91.3012   13.0746 C.3     1  UNL1        0.0481
     18 C          65.4899   92.3208   13.3041 C.3     1  UNL1        0.1435
     19 O          65.9525   93.1906   12.1729 O.3     1  UNL1       -0.3537
     20 C          65.3393   93.0406   10.8123 C.3     1  UNL1        0.1435
     21 C          64.2633   92.0209   10.5828 C.3     1  UNL1        0.0481
     22 C          62.7986   85.6919    8.8808 C.3     1  UNL1        0.1392
     23 C          61.5961   85.6729    7.9844 C.3     1  UNL1        0.1666
     24 O          60.2521   86.0634    8.5240 O.3     1  UNL1       -0.3517
     25 C          59.2516   88.2434    7.5258 C.3     1  UNL1        0.0346
     26 C          59.2567   86.7474    7.6345 C.3     1  UNL1        0.1423
@<TRIPOS>BOND
     1    25    26    1
     2    26    24    1
     3    24    23    1
     4    23    22    1
     5    22     1    1
     6     1     2   ar
     7     2    10    1
     8    10    11    1
     9    11    12    1
    10    12    13    1
    11    13    14    1
    12    14    16    1
    13    16    17    1
    14    17    18    1
    15    18    19    1
    16    19    20    1
    17    20    21    1
    18    14    15    1
    19     2     3   ar
    20     3     4   ar
    21     4     5   ar
    22     5     6   ar
    23     6     7   ar
    24     7     8   ar
    25     8     9   ar
    26     9     1   ar
    27    15    10    1
    28     9     4   ar
    29    21    16    1
@<TRIPOS>MOLECULE
*****
 26 29 0 0 0
SMALL
GASTEIGER

@<TRIPOS>ATOM
      1 N          63.4967   85.2239   13.3339 N.ar    1  UNL1       -0.3123
      2 C          62.8462   85.8213   12.1215 C.ar    1  UNL1        0.1213
      3 N          62.3620   84.6974   11.2541 N.ar    1  UNL1       -0.2309
      4 C          62.7132   83.4054   11.9304 C.ar    1  UNL1        0.0983
      5 C          62.4851   81.9747   11.5418 C.ar    1  UNL1        0.0206
      6 C          62.9583   80.8694   12.4387 C.ar    1  UNL1        0.0016
      7 C          63.6596   81.1948   13.7241 C.ar    1  UNL1        0.0016
      8 C          63.8877   82.6255   14.1127 C.ar    1  UNL1        0.0188
      9 C          63.4145   83.7308   13.2158 C.ar    1  UNL1        0.0787
     10 C          62.7047   87.2855   11.8281 C.3     1  UNL1        0.0729
     11 C          61.7646   87.7478   10.7546 C.3     1  UNL1        0.0103
     12 C          61.6231   89.2120   10.4611 C.3     1  UNL1        0.0178
     13 C          62.4217   90.2139   11.2411 C.3     1  UNL1        0.0721
     14 N          63.3618   89.7515   12.3146 N.3     1  UNL1       -0.2734
     15 C          63.5033   88.2873   12.6081 C.3     1  UNL1        0.0795
     16 C          64.1605   90.7534   13.0947 C.3     1  UNL1        0.0625
     17 C          64.1993   90.6792   14.5924 C.3     1  UNL1        0.0481
     18 C          64.9979   91.6810   15.3725 C.3     1  UNL1        0.1435
     19 O          65.7578   92.7570   14.6549 O.3     1  UNL1       -0.3537
     20 C          65.7190   92.8312   13.1572 C.3     1  UNL1        0.1435
     21 C          64.9203   91.8293   12.3771 C.3     1  UNL1        0.0481
     22 C          64.1199   85.9858   14.4658 C.3     1  UNL1        0.1392
     23 C          63.9509   85.5051   15.8765 C.3     1  UNL1        0.1666
     24 O          62.6614   85.7495   16.6028 O.3     1  UNL1       -0.3517
     25 C          63.0288   88.2558   17.1804 C.3     1  UNL1        0.0346
     26 C          62.5509   86.8890   17.5720 C.3     1  UNL1        0.1423
@<TRIPOS>BOND
     1    25    26    1
     2    26    24    1
     3    24    23    1
     4    23    22    1
     5    22     1    1
     6     1     2   ar
     7     2    10    1
     8    10    11    1
     9    11    12    1
    10    12    13    1
    11    13    14    1
    12    14    16    1
    13    16    17    1
    14    17    18    1
    15    18    19    1
    16    19    20    1
    17    20    21    1
    18    14    15    1
    19     2     3   ar
    20     3     4   ar
    21     4     5   ar
    22     5     6   ar
    23     6     7   ar
    24     7     8   ar
    25     8     9   ar
    26     9     1   ar
    27    15    10    1
    28     9     4   ar
    29    21    16    1
@<TRIPOS>MOLECULE
*****
 26 29 0 0 0
SMALL
GASTEIGER

@<TRIPOS>ATOM
      1 N          63.9545   90.1807   13.6730 N.ar    1  UNL1       -0.3123
      2 C          63.2762   90.4233   12.3574 C.ar    1  UNL1        0.1213
      3 N          63.9506   91.5886   11.6961 N.ar    1  UNL1       -0.2309
      4 C          65.0457   92.0662   12.6031 C.ar    1  UNL1        0.0983
      5 C          66.0410   93.1810   12.4743 C.ar    1  UNL1        0.0206
      6 C          67.0387   93.4256   13.5673 C.ar    1  UNL1        0.0016
      7 C          67.0411   92.5554   14.7891 C.ar    1  UNL1        0.0016
      8 C          66.0459   91.4406   14.9179 C.ar    1  UNL1        0.0188
      9 C          65.0481   91.1960   13.8249 C.ar    1  UNL1        0.0787
     10 C          62.1255   89.6384   11.8007 C.3     1  UNL1        0.0729
     11 C          60.7359   89.8806   12.3108 C.3     1  UNL1        0.0103
     12 C          59.5852   89.0957   11.7541 C.3     1  UNL1        0.0178
     13 C          59.8241   88.0687   10.6873 C.3     1  UNL1        0.0721
     14 N          61.2137   87.8266   10.1772 N.3     1  UNL1       -0.2734
     15 C          62.3644   88.6114   10.7339 C.3     1  UNL1        0.0795
     16 C          61.4527   86.7995    9.1103 C.3     1  UNL1        0.0625
     17 C          60.3735   86.4845    8.1173 C.3     1  UNL1        0.0481
     18 C          60.6124   85.4575    7.0505 C.3     1  UNL1        0.1435
     19 O          61.9306   84.7454    6.9767 O.3     1  UNL1       -0.3537
     20 C          63.0098   85.0604    7.9697 C.3     1  UNL1        0.1435
     21 C          62.7708   86.0875    9.0365 C.3     1  UNL1        0.0481
     22 C          63.6013   89.1106   14.6630 C.3     1  UNL1        0.1392
     23 C          64.3818   87.8301   14.6939 C.3     1  UNL1        0.1666
     24 O          63.6747   86.5257   14.9141 O.3     1  UNL1       -0.3517
     25 C          62.7909   86.4031   17.3542 C.3     1  UNL1        0.0346
     26 C          63.6887   85.8846   16.2701 C.3     1  UNL1        0.1423
@<TRIPOS>BOND
     1    25    26    1
     2    26    24    1
     3    24    23    1
     4    23    22    1
     5    22     1    1
     6     1     2   ar
     7     2    10    1
     8    10    11    1
     9    11    12    1
    10    12    13    1
    11    13    14    1
    12    14    16    1
    13    16    17    1
    14    17    18    1
    15    18    19    1
    16    19    20    1
    17    20    21    1
    18    14    15    1
    19     2     3   ar
    20     3     4   ar
    21     4     5   ar
    22     5     6   ar
    23     6     7   ar
    24     7     8   ar
    25     8     9   ar
    26     9     1   ar
    27    15    10    1
    28     9     4   ar
    29    21    16    1
@<TRIPOS>MOLECULE
*****
 26 29 0 0 0
SMALL
GASTEIGER

@<TRIPOS>ATOM
      1 N          64.0989   90.1266   13.8772 N.ar    1  UNL1       -0.3123
      2 C          63.5600   90.0375   12.4802 C.ar    1  UNL1        0.1213
      3 N          64.0952   91.2026   11.7017 N.ar    1  UNL1       -0.2309
      4 C          64.9650   92.0118   12.6176 C.ar    1  UNL1        0.0983
      5 C          65.7551   93.2682   12.4009 C.ar    1  UNL1        0.0206
      6 C          66.5476   93.8596   13.5288 C.ar    1  UNL1        0.0016
      7 C          66.5499   93.1946   14.8733 C.ar    1  UNL1        0.0016
      8 C          65.7598   91.9382   15.0900 C.ar    1  UNL1        0.0188
      9 C          64.9673   91.3468   13.9621 C.ar    1  UNL1        0.0787
     10 C          62.6462   88.9706   11.9541 C.3     1  UNL1        0.0729
     11 C          61.2796   89.3335   11.4535 C.3     1  UNL1        0.0103
     12 C          60.3658   88.2666   10.9273 C.3     1  UNL1        0.0178
     13 C          60.8187   86.8369   10.9019 C.3     1  UNL1        0.0721
     14 N          62.1853   86.4740   11.4025 N.3     1  UNL1       -0.2734
     15 C          63.0990   87.5409   11.9286 C.3     1  UNL1        0.0795
     16 C          62.6382   85.0442   11.3770 C.3     1  UNL1        0.0625
     17 C          62.5006   84.1920   12.6037 C.3     1  UNL1        0.0481
     18 C          62.9535   82.7622   12.5783 C.3     1  UNL1        0.1435
     19 O          63.5439   82.1846   11.3261 O.3     1  UNL1       -0.3537
     20 C          63.6814   83.0368   10.0994 C.3     1  UNL1        0.1435
     21 C          63.2285   84.4667   10.1249 C.3     1  UNL1        0.0481
     22 C          63.8188   89.1645   14.9933 C.3     1  UNL1        0.1392
     23 C          64.4473   87.8026   14.9851 C.3     1  UNL1        0.1666
     24 O          63.5930   86.5812   15.1539 O.3     1  UNL1       -0.3517
     25 C          62.6631   86.5114   17.5789 C.3     1  UNL1        0.0346
     26 C          63.5023   85.9085   16.4915 C.3     1  UNL1        0.1423
@<TRIPOS>BOND
     1    25    26    1
     2    26    24    1
     3    24    23    1
     4    23    22    1
     5    22     1    1
     6     1     2   ar
     7     2    10    1
     8    10    11    1
     9    11    12    1
    10    12    13    1
    11    13    14    1
    12    14    16    1
    13    16    17    1
    14    17    18    1
    15    18    19    1
    16    19    20    1
    17    20    21    1
    18    14    15    1
    19     2     3   ar
    20     3     4   ar
    21     4     5   ar
    22     5     6   ar
    23     6     7   ar
    24     7     8   ar
    25     8     9   ar
    26     9     1   ar
    27    15    10    1
    28     9     4   ar
    29    21    16    1
@<TRIPOS>MOLECULE
*****
 26 29 0 0 0
SMALL
GASTEIGER

@<TRIPOS>ATOM
      1 N          62.0297   88.1039   10.5421 N.ar    1  UNL1       -0.3123
      2 C          62.2240   89.5908   10.5062 C.ar    1  UNL1        0.1213
      3 N          61.3096   90.1525    9.4581 N.ar    1  UNL1       -0.2309
      4 C          60.5502   89.0127    8.8463 C.ar    1  UNL1        0.0983
      5 C          59.5110   88.9642    7.7658 C.ar    1  UNL1        0.0206
      6 C          58.9168   87.6495    7.3552 C.ar    1  UNL1        0.0016
      7 C          59.3619   86.3834    8.0252 C.ar    1  UNL1        0.0016
      8 C          60.4011   86.4319    9.1057 C.ar    1  UNL1        0.0188
      9 C          60.9952   87.7466    9.5163 C.ar    1  UNL1        0.0787
     10 C          63.1670   90.3779   11.3671 C.3     1  UNL1        0.0729
     11 C          63.1599   90.1882   12.8550 C.3     1  UNL1        0.0103
     12 C          64.1029   90.9753   13.7160 C.3     1  UNL1        0.0178
     13 C          65.0531   91.9520   13.0890 C.3     1  UNL1        0.0721
     14 N          65.0603   92.1416   11.6011 N.3     1  UNL1       -0.2734
     15 C          64.1172   91.3545   10.7401 C.3     1  UNL1        0.0795
     16 C          66.0105   93.1183   10.9740 C.3     1  UNL1        0.0625
     17 C          67.1304   92.6241   10.1072 C.3     1  UNL1        0.0481
     18 C          68.0807   93.6007    9.4801 C.3     1  UNL1        0.1435
     19 O          67.9109   95.0717    9.7199 O.3     1  UNL1       -0.3537
     20 C          66.7910   95.5660   10.5867 C.3     1  UNL1        0.1435
     21 C          65.8407   94.5893   11.2138 C.3     1  UNL1        0.0481
     22 C          62.7443   87.1429   11.4454 C.3     1  UNL1        0.1392
     23 C          62.2476   85.7346   11.5856 C.3     1  UNL1        0.1666
     24 O          63.1296   84.6853   12.1949 O.3     1  UNL1       -0.3517
     25 C          64.1448   83.1772   10.3389 C.3     1  UNL1        0.0346
     26 C          63.2607   83.3426   11.5393 C.3     1  UNL1        0.1423
@<TRIPOS>BOND
     1    25    26    1
     2    26    24    1
     3    24    23    1
     4    23    22    1
     5    22     1    1
     6     1     2   ar
     7     2    10    1
     8    10    11    1
     9    11    12    1
    10    12    13    1
    11    13    14    1
    12    14    16    1
    13    16    17    1
    14    17    18    1
    15    18    19    1
    16    19    20    1
    17    20    21    1
    18    14    15    1
    19     2     3   ar
    20     3     4   ar
    21     4     5   ar
    22     5     6   ar
    23     6     7   ar
    24     7     8   ar
    25     8     9   ar
    26     9     1   ar
    27    15    10    1
    28     9     4   ar
    29    21    16    1
@<TRIPOS>MOLECULE
*****
 26 29 0 0 0
SMALL
GASTEIGER

@<TRIPOS>ATOM
      1 N          62.7320   85.3652   11.4209 N.ar    1  UNL1       -0.3123
      2 C          63.0681   86.3765   12.4765 C.ar    1  UNL1        0.1213
      3 N          63.3415   85.6395   13.7540 N.ar    1  UNL1       -0.2309
      4 C          63.1744   84.1728   13.4880 C.ar    1  UNL1        0.0983
      5 C          63.3165   82.9697   14.3724 C.ar    1  UNL1        0.0206
      6 C          63.0820   81.5971   13.8149 C.ar    1  UNL1        0.0016
      7 C          62.7053   81.4276   12.3729 C.ar    1  UNL1        0.0016
      8 C          62.5632   82.6307   11.4884 C.ar    1  UNL1        0.0188
      9 C          62.7977   84.0033   12.0460 C.ar    1  UNL1        0.0787
     10 C          63.1214   87.8636   12.2877 C.3     1  UNL1        0.0729
     11 C          62.4603   88.4927   11.0973 C.3     1  UNL1        0.0103
     12 C          62.5137   89.9799   10.9086 C.3     1  UNL1        0.0178
     13 C          63.2281   90.8379   11.9102 C.3     1  UNL1        0.0721
     14 N          63.8892   90.2088   13.1006 N.3     1  UNL1       -0.2734
     15 C          63.8359   88.7216   13.2894 C.3     1  UNL1        0.0795
     16 C          64.6037   91.0668   14.1024 C.3     1  UNL1        0.0625
     17 C          65.8311   91.8282   13.6978 C.3     1  UNL1        0.0481
     18 C          66.5456   92.6861   14.6995 C.3     1  UNL1        0.1435
     19 O          66.0326   92.7828   16.1057 O.3     1  UNL1       -0.3537
     20 C          64.8052   92.0214   16.5103 C.3     1  UNL1        0.1435
     21 C          64.0907   91.1634   15.5086 C.3     1  UNL1        0.0481
     22 C          62.3903   85.6635    9.9911 C.3     1  UNL1        0.1392
     23 C          60.9700   85.9510    9.6037 C.3     1  UNL1        0.1666
     24 O          60.6042   86.1084    8.1575 O.3     1  UNL1       -0.3517
     25 C          59.6349   88.5102    7.9533 C.3     1  UNL1        0.0346
     26 C          59.4885   87.0297    7.7621 C.3     1  UNL1        0.1423
@<TRIPOS>BOND
     1    25    26    1
     2    26    24    1
     3    24    23    1
     4    23    22    1
     5    22     1    1
     6     1     2   ar
     7     2    10    1
     8    10    11    1
     9    11    12    1
    10    12    13    1
    11    13    14    1
    12    14    16    1
    13    16    17    1
    14    17    18    1
    15    18    19    1
    16    19    20    1
    17    20    21    1
    18    14    15    1
    19     2     3   ar
    20     3     4   ar
    21     4     5   ar
    22     5     6   ar
    23     6     7   ar
    24     7     8   ar
    25     8     9   ar
    26     9     1   ar
    27    15    10    1
    28     9     4   ar
    29    21    16    1
@<TRIPOS>MOLECULE
*****
 26 29 0 0 0
SMALL
GASTEIGER

@<TRIPOS>ATOM
      1 N          63.2771   86.4590   12.7265 N.ar    1  UNL1       -0.3123
      2 C          63.7977   86.7711   14.0982 C.ar    1  UNL1        0.1213
      3 N          64.2601   85.4876   14.7216 N.ar    1  UNL1       -0.2309
      4 C          64.0254   84.3822   13.7352 C.ar    1  UNL1        0.0983
      5 C          64.2863   82.9065   13.8005 C.ar    1  UNL1        0.0206
      6 C          63.9397   82.0312   12.6327 C.ar    1  UNL1        0.0016
      7 C          63.3321   82.6316   11.3997 C.ar    1  UNL1        0.0016
      8 C          63.0712   84.1073   11.3344 C.ar    1  UNL1        0.0188
      9 C          63.4178   84.9825   12.5022 C.ar    1  UNL1        0.0787
     10 C          63.8471   88.1285   14.7347 C.3     1  UNL1        0.0729
     11 C          63.2262   88.3479   16.0824 C.3     1  UNL1        0.0103
     12 C          63.2756   89.7053   16.7189 C.3     1  UNL1        0.0178
     13 C          63.9460   90.8432   16.0078 C.3     1  UNL1        0.0721
     14 N          64.5669   90.6237   14.6601 N.3     1  UNL1       -0.2734
     15 C          64.5175   89.2664   14.0236 C.3     1  UNL1        0.0795
     16 C          65.2374   91.7616   13.9489 C.3     1  UNL1        0.0625
     17 C          64.9937   91.9788   12.4848 C.3     1  UNL1        0.0481
     18 C          65.6640   93.1166   11.7736 C.3     1  UNL1        0.1435
     19 O          66.5782   94.0374   12.5264 O.3     1  UNL1       -0.3537
     20 C          66.8219   93.8202   13.9905 C.3     1  UNL1        0.1435
     21 C          66.1514   92.6823   14.7017 C.3     1  UNL1        0.0481
     22 C          62.7145   87.4494   11.7505 C.3     1  UNL1        0.1392
     23 C          61.3818   87.1972   11.1101 C.3     1  UNL1        0.1666
     24 O          60.1633   87.9184   11.6052 O.3     1  UNL1       -0.3517
     25 C          60.1482   90.2785   10.5190 C.3     1  UNL1        0.0346
     26 C          60.1800   89.4120   11.7430 C.3     1  UNL1        0.1423
@<TRIPOS>BOND
     1    25    26    1
     2    26    24    1
     3    24    23    1
     4    23    22    1
     5    22     1    1
     6     1     2   ar
     7     2    10    1
     8    10    11    1
     9    11    12    1
    10    12    13    1
    11    13    14    1
    12    14    16    1
    13    16    17    1
    14    17    18    1
    15    18    19    1
    16    19    20    1
    17    20    21    1
    18    14    15    1
    19     2     3   ar
    20     3     4   ar
    21     4     5   ar
    22     5     6   ar
    23     6     7   ar
    24     7     8   ar
    25     8     9   ar
    26     9     1   ar
    27    15    10    1
    28     9     4   ar
    29    21    16    1
