@<TRIPOS>MOLECULE
*****
 29 32 0 0 0
SMALL
GASTEIGER

@<TRIPOS>ATOM
      1 C          60.5999   86.2435    7.4572 C.3     1  UNL1        0.0374
      2 C          60.7878   87.3158    8.4891 C.ar    1  UNL1        0.0520
      3 C          60.1369   88.6548    8.3064 C.ar    1  UNL1        0.0749
      4 C          60.3247   89.7271    9.3384 C.ar    1  UNL1        0.0236
      5 C          61.1635   89.4604   10.5530 C.ar    1  UNL1        0.0939
      6 N          61.5260   90.3166   11.7301 N.ar    1  UNL1       -0.2334
      7 C          62.4010   89.5067   12.6403 C.ar    1  UNL1        0.1637
      8 S          62.5793   88.1500   12.0257 S.2     1  UNL1       -0.0558
      9 C          61.8144   88.1214   10.7357 C.ar    1  UNL1        0.1175
     10 C          61.6265   87.0491    9.7037 C.ar    1  UNL1        0.2931
     11 C          62.9938   89.9718   13.9373 C.2     1  UNL1        0.2456
     12 N          63.9772   91.0918   14.1059 N.2     1  UNL1       -0.2248
     13 C          64.2984   91.2107   15.5662 C.3     1  UNL1        0.2255
     14 C          63.5134   90.1643   16.3003 C.3     1  UNL1        0.2407
     15 O          62.7071   89.3985   15.2935 O.2     1  UNL1       -0.4564
     16 C          65.2393   92.2021   16.1842 C.2     1  UNL1        0.2519
     17 O          64.7909   93.0384   17.3460 O.2     1  UNL1       -0.2726
     18 N          66.6287   92.3573   15.6404 N.am    1  UNL1       -0.2779
     19 C          67.6753   93.3022   16.1521 C.3     1  UNL1        0.0935
     20 C          68.9088   93.1236   15.3174 C.3     1  UNL1        0.0233
     21 C          68.6244   92.0685   14.2899 C.3     1  UNL1        0.0233
     22 C          67.2153   91.5948   14.4895 C.3     1  UNL1        0.0935
     23 C          59.2980   88.9215    7.0917 C.3     1  UNL1        0.4185
     24 F          58.4593   89.1882    5.8771 F       1  UNL1       -0.1659
     25 F          60.3299   89.8884    6.5915 F       1  UNL1       -0.1659
     26 F          58.2662   87.9545    7.5921 F       1  UNL1       -0.1659
     27 N          62.2775   85.7101    9.8864 N.pl3   1  UNL1        0.0811
     28 O          63.2371   85.1956    8.8546 O.2     1  UNL1        0.0415
     29 O          61.9688   84.8856   11.1009 O.co2   1  UNL1       -0.5760
@<TRIPOS>UNITY_ATOM_ATTR
27 1
charge 1
29 1
charge -1
@<TRIPOS>BOND
     1     1     2    1
     2     2     3   ar
     3     3    23    1
     4    23    24    1
     5    23    25    1
     6    23    26    1
     7     3     4   ar
     8     4     5   ar
     9     5     6   ar
    10     6     7   ar
    11     7    11    1
    12    11    12    2
    13    12    13    1
    14    13    16    1
    15    16    17    2
    16    16    18   am
    17    18    19    1
    18    19    20    1
    19    20    21    1
    20    21    22    1
    21    13    14    1
    22    14    15    1
    23     7     8   ar
    24     8     9   ar
    25     9    10   ar
    26    10    27    1
    27    27    28    2
    28    27    29    1
    29    10     2   ar
    30     9     5   ar
    31    15    11    1
    32    22    18    1
@<TRIPOS>MOLECULE
*****
 29 32 0 0 0
SMALL
GASTEIGER

@<TRIPOS>ATOM
      1 C          62.4067   81.9346   11.1051 C.3     1  UNL1        0.0374
      2 C          62.7565   82.9105   12.1893 C.ar    1  UNL1        0.0520
      3 C          63.0149   82.4217   13.5836 C.ar    1  UNL1        0.0749
      4 C          63.3646   83.3977   14.6677 C.ar    1  UNL1        0.0236
      5 C          63.4559   84.8624   14.3574 C.ar    1  UNL1        0.0939
      6 N          63.7780   86.0514   15.2133 N.ar    1  UNL1       -0.2334
      7 C          63.7186   87.2751   14.3478 C.ar    1  UNL1        0.1637
      8 S          63.3598   86.8423   12.9571 S.2     1  UNL1       -0.0558
      9 C          63.1975   85.3511   12.9631 C.ar    1  UNL1        0.1175
     10 C          62.8478   84.3752   11.8790 C.ar    1  UNL1        0.2931
     11 C          63.9732   88.6842   14.7945 C.2     1  UNL1        0.2456
     12 N          64.9537   89.6398   14.1817 N.2     1  UNL1       -0.2248
     13 C          64.8785   90.9313   14.9409 C.3     1  UNL1        0.2255
     14 C          63.8517   90.7739   16.0230 C.3     1  UNL1        0.2407
     15 O          63.2921   89.3850   15.9325 O.2     1  UNL1       -0.4564
     16 C          65.6881   92.1639   14.6663 C.2     1  UNL1        0.2519
     17 O          66.4561   92.8193   15.7757 O.2     1  UNL1       -0.2726
     18 N          65.7297   92.7410   13.2824 N.am    1  UNL1       -0.2779
     19 C          66.4911   93.9621   12.8590 C.3     1  UNL1        0.0935
     20 C          66.2492   94.1742   11.3939 C.3     1  UNL1        0.0233
     21 C          65.3384   93.0842   10.9119 C.3     1  UNL1        0.0233
     22 C          65.0174   92.1984   12.0791 C.3     1  UNL1        0.0935
     23 C          62.9236   80.9570   13.8939 C.3     1  UNL1        0.4185
     24 F          62.8323   79.4923   14.2042 F       1  UNL1       -0.1659
     25 F          64.3625   80.7853   13.5067 F       1  UNL1       -0.1659
     26 F          61.4846   81.1287   14.2810 F       1  UNL1       -0.1659
     27 N          62.5893   84.8640   10.4846 N.pl3   1  UNL1        0.0811
     28 O          63.5184   84.4803    9.3711 O.2     1  UNL1        0.0415
     29 O          61.4019   85.7364   10.2036 O.co2   1  UNL1       -0.5760
@<TRIPOS>UNITY_ATOM_ATTR
27 1
charge 1
29 1
charge -1
@<TRIPOS>BOND
     1     1     2    1
     2     2     3   ar
     3     3    23    1
     4    23    24    1
     5    23    25    1
     6    23    26    1
     7     3     4   ar
     8     4     5   ar
     9     5     6   ar
    10     6     7   ar
    11     7    11    1
    12    11    12    2
    13    12    13    1
    14    13    16    1
    15    16    17    2
    16    16    18   am
    17    18    19    1
    18    19    20    1
    19    20    21    1
    20    21    22    1
    21    13    14    1
    22    14    15    1
    23     7     8   ar
    24     8     9   ar
    25     9    10   ar
    26    10    27    1
    27    27    28    2
    28    27    29    1
    29    10     2   ar
    30     9     5   ar
    31    15    11    1
    32    22    18    1
@<TRIPOS>MOLECULE
*****
 29 32 0 0 0
SMALL
GASTEIGER

@<TRIPOS>ATOM
      1 C          67.0141   94.1697   13.7554 C.3     1  UNL1        0.0374
      2 C          66.0869   93.4994   12.7853 C.ar    1  UNL1        0.0520
      3 C          65.9191   94.0549   11.4022 C.ar    1  UNL1        0.0749
      4 C          64.9920   93.3846   10.4320 C.ar    1  UNL1        0.0236
      5 C          64.2327   92.1587   10.8451 C.ar    1  UNL1        0.0939
      6 N          63.2548   91.2891   10.1119 N.ar    1  UNL1       -0.2334
      7 C          62.8183   90.1962   11.0419 C.ar    1  UNL1        0.1637
      8 S          63.5264   90.3903   12.3499 S.2     1  UNL1       -0.0558
      9 C          64.4005   91.6032   12.2283 C.ar    1  UNL1        0.1175
     10 C          65.3277   92.2735   13.1984 C.ar    1  UNL1        0.2931
     11 C          61.8447   89.1014   10.7203 C.2     1  UNL1        0.2456
     12 N          61.5722   88.5359    9.3580 N.2     1  UNL1       -0.2248
     13 C          60.5317   87.4649    9.5003 C.3     1  UNL1        0.2255
     14 C          60.1611   87.3684   10.9506 C.3     1  UNL1        0.2407
     15 O          60.9726   88.3799   11.7047 O.2     1  UNL1       -0.4564
     16 C          59.9618   86.6358    8.3877 C.2     1  UNL1        0.2519
     17 O          58.4988   86.7162    8.0660 O.2     1  UNL1       -0.2726
     18 N          60.8548   85.7264    7.5968 N.am    1  UNL1       -0.2779
     19 C          60.4301   84.8421    6.4620 C.3     1  UNL1        0.0935
     20 C          61.6420   84.1108    5.9657 C.3     1  UNL1        0.0233
     21 C          62.8157   84.5430    6.7937 C.3     1  UNL1        0.0233
     22 C          62.3291   85.5415    7.8018 C.3     1  UNL1        0.0935
     23 C          66.6784   95.2809   10.9890 C.3     1  UNL1        0.4185
     24 F          67.4377   96.5067   10.5759 F       1  UNL1       -0.1659
     25 F          67.6287   94.4273   10.2027 F       1  UNL1       -0.1659
     26 F          65.7281   96.1344   11.7754 F       1  UNL1       -0.1659
     27 N          65.4955   91.7180   14.5816 N.pl3   1  UNL1        0.0811
     28 O          64.4090   91.8996   15.5998 O.2     1  UNL1        0.0415
     29 O          66.7498   90.9809   14.9467 O.co2   1  UNL1       -0.5760
@<TRIPOS>UNITY_ATOM_ATTR
27 1
charge 1
29 1
charge -1
@<TRIPOS>BOND
     1     1     2    1
     2     2     3   ar
     3     3    23    1
     4    23    24    1
     5    23    25    1
     6    23    26    1
     7     3     4   ar
     8     4     5   ar
     9     5     6   ar
    10     6     7   ar
    11     7    11    1
    12    11    12    2
    13    12    13    1
    14    13    16    1
    15    16    17    2
    16    16    18   am
    17    18    19    1
    18    19    20    1
    19    20    21    1
    20    21    22    1
    21    13    14    1
    22    14    15    1
    23     7     8   ar
    24     8     9   ar
    25     9    10   ar
    26    10    27    1
    27    27    28    2
    28    27    29    1
    29    10     2   ar
    30     9     5   ar
    31    15    11    1
    32    22    18    1
@<TRIPOS>MOLECULE
*****
 29 32 0 0 0
SMALL
GASTEIGER

@<TRIPOS>ATOM
      1 C          62.4633   81.8292   10.9675 C.3     1  UNL1        0.0374
      2 C          62.7996   82.9296   11.9299 C.ar    1  UNL1        0.0520
      3 C          63.0813   82.6085   13.3677 C.ar    1  UNL1        0.0749
      4 C          63.4176   83.7090   14.3300 C.ar    1  UNL1        0.0236
      5 C          63.4722   85.1305   13.8544 C.ar    1  UNL1        0.0939
      6 N          63.7739   86.4160   14.5660 N.ar    1  UNL1       -0.2334
      7 C          63.6787   87.5317   13.5678 C.ar    1  UNL1        0.1637
      8 S          63.3181   86.9356   12.2394 S.2     1  UNL1       -0.0558
      9 C          63.1905   85.4516   12.4165 C.ar    1  UNL1        0.1175
     10 C          62.8542   84.3512   11.4542 C.ar    1  UNL1        0.2931
     11 C          63.9044   88.9877   13.8488 C.2     1  UNL1        0.2456
     12 N          64.7584   89.5520   14.9452 N.2     1  UNL1       -0.2248
     13 C          64.6975   91.0482   14.8567 C.3     1  UNL1        0.2255
     14 C          63.8058   91.4086   13.7056 C.3     1  UNL1        0.2407
     15 O          63.3156   90.1351   13.0826 O.2     1  UNL1       -0.4564
     16 C          65.4043   92.0144   15.7606 C.2     1  UNL1        0.2519
     17 O          64.6799   92.6165   16.9280 O.2     1  UNL1       -0.2726
     18 N          66.8353   92.3786   15.4970 N.am    1  UNL1       -0.2779
     19 C          67.6682   93.3252   16.3097 C.3     1  UNL1        0.0935
     20 C          69.0324   93.3917   15.6895 C.3     1  UNL1        0.0233
     21 C          69.0426   92.4863   14.4936 C.3     1  UNL1        0.0233
     22 C          67.6847   91.8602   14.3747 C.3     1  UNL1        0.0935
     23 C          63.0267   81.1869   13.8433 C.3     1  UNL1        0.4185
     24 F          62.9721   79.7654   14.3190 F       1  UNL1       -0.1659
     25 F          61.5969   81.3792   14.2539 F       1  UNL1       -0.1659
     26 F          64.4565   80.9947   13.4327 F       1  UNL1       -0.1659
     27 N          62.5725   84.6723   10.0163 N.pl3   1  UNL1        0.0811
     28 O          63.5129   84.2045    8.9452 O.2     1  UNL1        0.0415
     29 O          61.3506   85.4611    9.6495 O.co2   1  UNL1       -0.5760
@<TRIPOS>UNITY_ATOM_ATTR
27 1
charge 1
29 1
charge -1
@<TRIPOS>BOND
     1     1     2    1
     2     2     3   ar
     3     3    23    1
     4    23    24    1
     5    23    25    1
     6    23    26    1
     7     3     4   ar
     8     4     5   ar
     9     5     6   ar
    10     6     7   ar
    11     7    11    1
    12    11    12    2
    13    12    13    1
    14    13    16    1
    15    16    17    2
    16    16    18   am
    17    18    19    1
    18    19    20    1
    19    20    21    1
    20    21    22    1
    21    13    14    1
    22    14    15    1
    23     7     8   ar
    24     8     9   ar
    25     9    10   ar
    26    10    27    1
    27    27    28    2
    28    27    29    1
    29    10     2   ar
    30     9     5   ar
    31    15    11    1
    32    22    18    1
@<TRIPOS>MOLECULE
*****
 29 32 0 0 0
SMALL
GASTEIGER

@<TRIPOS>ATOM
      1 C          66.9284   94.8630   13.7460 C.3     1  UNL1        0.0374
      2 C          66.1568   93.8331   12.9751 C.ar    1  UNL1        0.0520
      3 C          65.8713   94.0454   11.5179 C.ar    1  UNL1        0.0749
      4 C          65.0997   93.0156   10.7470 C.ar    1  UNL1        0.0236
      5 C          64.6136   91.7736   11.4334 C.ar    1  UNL1        0.0939
      6 N          63.8348   90.5917   10.9367 N.ar    1  UNL1       -0.2334
      7 C          63.6390   89.6491   12.0870 C.ar    1  UNL1        0.1637
      8 S          64.2968   90.2484   13.2946 S.2     1  UNL1       -0.0558
      9 C          64.8991   91.5614   12.8906 C.ar    1  UNL1        0.1175
     10 C          65.6707   92.5912   13.6615 C.ar    1  UNL1        0.2931
     11 C          62.9129   88.3375   12.0382 C.2     1  UNL1        0.2456
     12 N          63.2921   87.0916   12.7826 N.2     1  UNL1       -0.2248
     13 C          62.2937   86.0256   12.4410 C.3     1  UNL1        0.2255
     14 C          61.2974   86.6125   11.4855 C.3     1  UNL1        0.2407
     15 O          61.6801   88.0414   11.2366 O.2     1  UNL1       -0.4564
     16 C          62.2918   84.6194   12.9632 C.2     1  UNL1        0.2519
     17 O          61.7498   84.3281   14.3313 O.2     1  UNL1       -0.2726
     18 N          62.8319   83.5045   12.1174 N.am    1  UNL1       -0.2779
     19 C          62.8953   82.0563   12.5032 C.3     1  UNL1        0.0935
     20 C          63.5060   81.2989   11.3616 C.3     1  UNL1        0.0233
     21 C          63.8200   82.2789   10.2703 C.3     1  UNL1        0.0233
     22 C          63.4034   83.6421   10.7374 C.3     1  UNL1        0.0935
     23 C          66.3574   95.2874   10.8315 C.3     1  UNL1        0.4185
     24 F          66.8435   96.5294   10.1451 F       1  UNL1       -0.1659
     25 F          67.5394   94.5316   10.3008 F       1  UNL1       -0.1659
     26 F          65.1755   96.0432   11.3623 F       1  UNL1       -0.1659
     27 N          65.9562   92.3790   15.1187 N.pl3   1  UNL1        0.0811
     28 O          67.3383   92.0038   15.5653 O.2     1  UNL1        0.0415
     29 O          64.8598   92.5419   16.1293 O.co2   1  UNL1       -0.5760
@<TRIPOS>UNITY_ATOM_ATTR
27 1
charge 1
29 1
charge -1
@<TRIPOS>BOND
     1     1     2    1
     2     2     3   ar
     3     3    23    1
     4    23    24    1
     5    23    25    1
     6    23    26    1
     7     3     4   ar
     8     4     5   ar
     9     5     6   ar
    10     6     7   ar
    11     7    11    1
    12    11    12    2
    13    12    13    1
    14    13    16    1
    15    16    17    2
    16    16    18   am
    17    18    19    1
    18    19    20    1
    19    20    21    1
    20    21    22    1
    21    13    14    1
    22    14    15    1
    23     7     8   ar
    24     8     9   ar
    25     9    10   ar
    26    10    27    1
    27    27    28    2
    28    27    29    1
    29    10     2   ar
    30     9     5   ar
    31    15    11    1
    32    22    18    1
@<TRIPOS>MOLECULE
*****
 29 32 0 0 0
SMALL
GASTEIGER

@<TRIPOS>ATOM
      1 C          66.7987   94.5192   13.6478 C.3     1  UNL1        0.0374
      2 C          66.0887   93.2270   13.3718 C.ar    1  UNL1        0.0520
      3 C          65.4790   92.9791   12.0240 C.ar    1  UNL1        0.0749
      4 C          64.7690   91.6869   11.7480 C.ar    1  UNL1        0.0236
      5 C          64.6688   90.6425   12.8201 C.ar    1  UNL1        0.0939
      6 N          64.0354   89.2830   12.8407 N.ar    1  UNL1       -0.2334
      7 C          64.2537   88.6906   14.2013 C.ar    1  UNL1        0.1637
      8 S          65.0219   89.6840   15.0217 S.2     1  UNL1       -0.0558
      9 C          65.2784   90.8904   14.1680 C.ar    1  UNL1        0.1175
     10 C          65.9884   92.1826   14.4439 C.ar    1  UNL1        0.2931
     11 C          63.7859   87.3415   14.6610 C.2     1  UNL1        0.2456
     12 N          63.7208   86.0986   13.8239 N.2     1  UNL1       -0.2248
     13 C          63.1958   84.9875   14.6840 C.3     1  UNL1        0.2255
     14 C          62.9363   85.5437   16.0527 C.3     1  UNL1        0.2407
     15 O          63.3011   86.9987   16.0385 O.2     1  UNL1       -0.4564
     16 C          62.9698   83.5691   14.2514 C.2     1  UNL1        0.2519
     17 O          62.4753   82.5536   15.2386 O.2     1  UNL1       -0.2726
     18 N          63.2382   83.1661   12.8317 N.am    1  UNL1       -0.2779
     19 C          63.0595   81.7924   12.2563 C.3     1  UNL1        0.0935
     20 C          63.4433   81.8434   10.8071 C.3     1  UNL1        0.0233
     21 C          63.8592   83.2485   10.4869 C.3     1  UNL1        0.0233
     22 C          63.7325   84.0660   11.7382 C.3     1  UNL1        0.0935
     23 C          65.5793   94.0235   10.9519 C.3     1  UNL1        0.4185
     24 F          65.6796   95.0679    9.8799 F       1  UNL1       -0.1659
     25 F          65.3978   95.0985   11.9821 F       1  UNL1       -0.1659
     26 F          65.7609   92.9485    9.9217 F       1  UNL1       -0.1659
     27 N          66.5981   92.4305   15.7918 N.pl3   1  UNL1        0.0811
     28 O          65.7245   92.8023   16.9532 O.2     1  UNL1        0.0415
     29 O          68.0813   92.3067   15.9783 O.co2   1  UNL1       -0.5760
@<TRIPOS>UNITY_ATOM_ATTR
27 1
charge 1
29 1
charge -1
@<TRIPOS>BOND
     1     1     2    1
     2     2     3   ar
     3     3    23    1
     4    23    24    1
     5    23    25    1
     6    23    26    1
     7     3     4   ar
     8     4     5   ar
     9     5     6   ar
    10     6     7   ar
    11     7    11    1
    12    11    12    2
    13    12    13    1
    14    13    16    1
    15    16    17    2
    16    16    18   am
    17    18    19    1
    18    19    20    1
    19    20    21    1
    20    21    22    1
    21    13    14    1
    22    14    15    1
    23     7     8   ar
    24     8     9   ar
    25     9    10   ar
    26    10    27    1
    27    27    28    2
    28    27    29    1
    29    10     2   ar
    30     9     5   ar
    31    15    11    1
    32    22    18    1
@<TRIPOS>MOLECULE
*****
 29 32 0 0 0
SMALL
GASTEIGER

@<TRIPOS>ATOM
      1 C          59.7972   87.6715    7.1747 C.3     1  UNL1        0.0374
      2 C          60.6566   87.6092    8.4026 C.ar    1  UNL1        0.0520
      3 C          61.5401   86.4207    8.6401 C.ar    1  UNL1        0.0749
      4 C          62.3995   86.3583    9.8680 C.ar    1  UNL1        0.0236
      5 C          62.3752   87.4847   10.8584 C.ar    1  UNL1        0.0939
      6 N          63.1068   87.7016   12.1497 N.ar    1  UNL1       -0.2334
      7 C          62.6753   89.0243   12.7103 C.ar    1  UNL1        0.1637
      8 S          61.6770   89.6249   11.7654 S.2     1  UNL1       -0.0558
      9 C          61.4916   88.6733   10.6208 C.ar    1  UNL1        0.1175
     10 C          60.6323   88.7355    9.3929 C.ar    1  UNL1        0.2931
     11 C          63.1574   89.6387   13.9910 C.2     1  UNL1        0.2456
     12 N          64.1018   90.7978   14.1121 N.2     1  UNL1       -0.2248
     13 C          64.3078   91.0773   15.5713 C.3     1  UNL1        0.2255
     14 C          63.4908   90.0910   16.3522 C.3     1  UNL1        0.2407
     15 O          62.7798   89.2018   15.3754 O.2     1  UNL1       -0.4564
     16 C          65.1781   92.1541   16.1485 C.2     1  UNL1        0.2519
     17 O          64.6457   93.0516   17.2262 O.2     1  UNL1       -0.2726
     18 N          66.5807   92.3335   15.6481 N.am    1  UNL1       -0.2779
     19 C          67.5630   93.3612   16.1270 C.3     1  UNL1        0.0935
     20 C          68.8367   93.1796   15.3559 C.3     1  UNL1        0.0233
     21 C          68.6417   92.0398   14.4005 C.3     1  UNL1        0.0233
     22 C          67.2474   91.5169   14.5811 C.3     1  UNL1        0.0935
     23 C          61.5644   85.2942    7.6498 C.3     1  UNL1        0.4185
     24 F          61.5888   84.1679    6.6594 F       1  UNL1       -0.1659
     25 F          63.0642   85.3185    7.6589 F       1  UNL1       -0.1659
     26 F          60.0647   85.2700    7.6406 F       1  UNL1       -0.1659
     27 N          59.7486   89.9241    9.1554 N.pl3   1  UNL1        0.0811
     28 O          59.2726   90.2395    7.7682 O.2     1  UNL1        0.0415
     29 O          59.3410   90.7973   10.3049 O.co2   1  UNL1       -0.5760
@<TRIPOS>UNITY_ATOM_ATTR
27 1
charge 1
29 1
charge -1
@<TRIPOS>BOND
     1     1     2    1
     2     2     3   ar
     3     3    23    1
     4    23    24    1
     5    23    25    1
     6    23    26    1
     7     3     4   ar
     8     4     5   ar
     9     5     6   ar
    10     6     7   ar
    11     7    11    1
    12    11    12    2
    13    12    13    1
    14    13    16    1
    15    16    17    2
    16    16    18   am
    17    18    19    1
    18    19    20    1
    19    20    21    1
    20    21    22    1
    21    13    14    1
    22    14    15    1
    23     7     8   ar
    24     8     9   ar
    25     9    10   ar
    26    10    27    1
    27    27    28    2
    28    27    29    1
    29    10     2   ar
    30     9     5   ar
    31    15    11    1
    32    22    18    1
@<TRIPOS>MOLECULE
*****
 29 32 0 0 0
SMALL
GASTEIGER

@<TRIPOS>ATOM
      1 C          63.3205   80.3472   13.9508 C.3     1  UNL1        0.0374
      2 C          63.0936   81.5455   13.0774 C.ar    1  UNL1        0.0520
      3 C          62.8398   81.3669   11.6100 C.ar    1  UNL1        0.0749
      4 C          62.6130   82.5652   10.7366 C.ar    1  UNL1        0.0236
      5 C          62.6400   83.9422   11.3309 C.ar    1  UNL1        0.0939
      6 N          62.4518   85.3010   10.7242 N.ar    1  UNL1       -0.2334
      7 C          62.5893   86.3195   11.8168 C.ar    1  UNL1        0.1637
      8 S          62.8625   85.5901   13.0988 S.2     1  UNL1       -0.0558
      9 C          62.8938   84.1208   12.7985 C.ar    1  UNL1        0.1175
     10 C          63.1206   82.9225   13.6717 C.ar    1  UNL1        0.2931
     11 C          62.4740   87.8064   11.6558 C.2     1  UNL1        0.2456
     12 N          63.6131   88.7821   11.6367 N.2     1  UNL1       -0.2248
     13 C          63.0424   90.1573   11.4546 C.3     1  UNL1        0.2255
     14 C          61.5506   90.0315   11.3612 C.3     1  UNL1        0.2407
     15 O          61.1993   88.5785   11.4855 O.2     1  UNL1       -0.4564
     16 C          63.8259   91.4342   11.3792 C.2     1  UNL1        0.2519
     17 O          63.6968   92.3236   10.1782 O.2     1  UNL1       -0.2726
     18 N          64.7385   91.8217   12.5048 N.am    1  UNL1       -0.2779
     19 C          65.5806   93.0614   12.5702 C.3     1  UNL1        0.0935
     20 C          66.3318   93.0435   13.8684 C.3     1  UNL1        0.0233
     21 C          65.9540   91.7928   14.6053 C.3     1  UNL1        0.0233
     22 C          64.9693   91.0377   13.7626 C.3     1  UNL1        0.0935
     23 C          62.8128   79.9898   11.0156 C.3     1  UNL1        0.4185
     24 F          62.7858   78.6128   10.4214 F       1  UNL1       -0.1659
     25 F          62.2993   79.4399   12.3133 F       1  UNL1       -0.1659
     26 F          63.3264   80.5398    9.7181 F       1  UNL1       -0.1659
     27 N          63.3745   83.1012   15.1393 N.pl3   1  UNL1        0.0811
     28 O          64.6896   82.6855   15.7290 O.2     1  UNL1        0.0415
     29 O          62.3132   83.6954   16.0171 O.co2   1  UNL1       -0.5760
@<TRIPOS>UNITY_ATOM_ATTR
27 1
charge 1
29 1
charge -1
@<TRIPOS>BOND
     1     1     2    1
     2     2     3   ar
     3     3    23    1
     4    23    24    1
     5    23    25    1
     6    23    26    1
     7     3     4   ar
     8     4     5   ar
     9     5     6   ar
    10     6     7   ar
    11     7    11    1
    12    11    12    2
    13    12    13    1
    14    13    16    1
    15    16    17    2
    16    16    18   am
    17    18    19    1
    18    19    20    1
    19    20    21    1
    20    21    22    1
    21    13    14    1
    22    14    15    1
    23     7     8   ar
    24     8     9   ar
    25     9    10   ar
    26    10    27    1
    27    27    28    2
    28    27    29    1
    29    10     2   ar
    30     9     5   ar
    31    15    11    1
    32    22    18    1
@<TRIPOS>MOLECULE
*****
 29 32 0 0 0
SMALL
GASTEIGER

@<TRIPOS>ATOM
      1 C          63.2278   80.4660   13.8436 C.3     1  UNL1        0.0374
      2 C          63.1439   81.7521   13.0761 C.ar    1  UNL1        0.0520
      3 C          62.9587   81.7266   11.5878 C.ar    1  UNL1        0.0749
      4 C          62.8747   83.0127   10.8203 C.ar    1  UNL1        0.0236
      5 C          62.9761   84.3242   11.5411 C.ar    1  UNL1        0.0939
      6 N          62.9284   85.7427   11.0556 N.ar    1  UNL1       -0.2334
      7 C          63.0841   86.6448   12.2438 C.ar    1  UNL1        0.1637
      8 S          63.2281   85.7839   13.4638 S.2     1  UNL1       -0.0558
      9 C          63.1613   84.3497   13.0295 C.ar    1  UNL1        0.1175
     10 C          63.2452   83.0636   13.7969 C.ar    1  UNL1        0.2931
     11 C          63.0942   88.1445   12.2169 C.2     1  UNL1        0.2456
     12 N          64.0703   89.0325   12.9301 N.2     1  UNL1       -0.2248
     13 C          63.7093   90.4564   12.6261 C.3     1  UNL1        0.2255
     14 C          62.5101   90.4483   11.7251 C.3     1  UNL1        0.2407
     15 O          62.1299   89.0194   11.4722 O.2     1  UNL1       -0.4564
     16 C          64.4223   91.6744   13.1339 C.2     1  UNL1        0.2519
     17 O          64.3838   92.0114   14.5951 O.2     1  UNL1       -0.2726
     18 N          65.1739   92.5556   12.1806 N.am    1  UNL1       -0.2779
     19 C          65.9307   93.7999   12.5400 C.3     1  UNL1        0.0935
     20 C          66.5251   94.3604   11.2821 C.3     1  UNL1        0.0233
     21 C          66.1357   93.4626   10.1453 C.3     1  UNL1        0.0233
     22 C          65.3006   92.3472   10.7006 C.3     1  UNL1        0.0935
     23 C          62.8573   80.4150   10.8670 C.3     1  UNL1        0.4185
     24 F          62.7560   79.1035   10.1461 F       1  UNL1       -0.1659
     25 F          62.1414   79.8231   12.0447 F       1  UNL1       -0.1659
     26 F          63.5732   81.0071    9.6893 F       1  UNL1       -0.1659
     27 N          63.4304   83.0891   15.2852 N.pl3   1  UNL1        0.0811
     28 O          62.3109   83.5466   16.1727 O.2     1  UNL1        0.0415
     29 O          64.7351   82.6570   15.8861 O.co2   1  UNL1       -0.5760
@<TRIPOS>UNITY_ATOM_ATTR
27 1
charge 1
29 1
charge -1
@<TRIPOS>BOND
     1     1     2    1
     2     2     3   ar
     3     3    23    1
     4    23    24    1
     5    23    25    1
     6    23    26    1
     7     3     4   ar
     8     4     5   ar
     9     5     6   ar
    10     6     7   ar
    11     7    11    1
    12    11    12    2
    13    12    13    1
    14    13    16    1
    15    16    17    2
    16    16    18   am
    17    18    19    1
    18    19    20    1
    19    20    21    1
    20    21    22    1
    21    13    14    1
    22    14    15    1
    23     7     8   ar
    24     8     9   ar
    25     9    10   ar
    26    10    27    1
    27    27    28    2
    28    27    29    1
    29    10     2   ar
    30     9     5   ar
    31    15    11    1
    32    22    18    1
