@<TRIPOS>MOLECULE
*****
 33 36 0 0 0
SMALL
GASTEIGER

@<TRIPOS>ATOM
      1 C          63.0795   89.6939   12.2538 C.ar    1  UNL1        0.0140
      2 S          63.6495   90.7144   11.3137 S.2     1  UNL1       -0.0737
      3 C          64.5596   91.6112   12.0995 C.ar    1  UNL1        0.0982
      4 C          64.5522   91.1450   13.5252 C.ar    1  UNL1        0.0830
      5 C          63.6374   89.9600   13.6206 C.ar    1  UNL1        0.0641
      6 C          65.3793   91.8597   14.5523 C.ar    1  UNL1        0.2663
      7 O          65.3719   91.3935   15.9780 O.2     1  UNL1       -0.2668
      8 N          66.2139   93.0406   14.1537 N.ar    1  UNL1       -0.2467
      9 C          67.0411   93.7554   15.1809 C.3     1  UNL1        0.1382
     10 C          66.2214   93.5068   12.7281 C.ar    1  UNL1        0.3342
     11 O          67.0560   94.6878   12.3295 O.2     1  UNL1       -0.2462
     12 N          65.3942   92.7921   11.7009 N.ar    1  UNL1       -0.2757
     13 C          63.3338   89.1784   14.8643 C.2     1  UNL1        0.2716
     14 O          62.6239   89.8374   16.0096 O.2     1  UNL1       -0.2678
     15 N          63.7402   87.7378   14.9627 N.am    1  UNL1       -0.1620
     16 C          63.5056   86.8338   16.1365 C.3     1  UNL1        0.1561
     17 C          64.0729   85.4857   15.8039 C.3     1  UNL1        0.1648
     18 O          64.0576   84.2786   16.6943 O.3     1  UNL1       -0.3800
     19 C          64.6580   85.5565   14.4245 C.3     1  UNL1        0.2022
     20 O          64.4524   86.9484   13.9047 O.3     1  UNL1       -0.2601
     21 H          63.6201   84.4998   17.5313 H       1  UNL1        0.2105
     22 C          62.1201   88.5995   11.8910 C.3     1  UNL1        0.0445
     23 C          62.4752   86.6474    9.3000 C.3     1  UNL1        0.0495
     24 C          61.5023   87.7827    9.4218 C.2     1  UNL1        0.0639
     25 N          60.5219   88.2200    8.3742 N.2     1  UNL1       -0.1570
     26 N          59.7528   89.3875    8.9177 N.2     1  UNL1       -0.1570
     27 C          60.2579   89.6718   10.3011 C.2     1  UNL1        0.0639
     28 C          59.7677   90.7572   11.2130 C.3     1  UNL1        0.0495
     29 C          61.3392   88.6799   10.6128 C.3     1  UNL1        0.0805
     30 C          65.4017   93.2584   10.2752 C.3     1  UNL1        0.1109
     31 C          66.7044   93.4842    9.5668 C.3     1  UNL1        0.0228
     32 C          67.7805   92.4409    9.6253 C.3     1  UNL1        0.0020
     33 C          66.9311   94.7533    8.8000 C.3     1  UNL1        0.0020
@<TRIPOS>BOND
     1    23    24    1
     2    24    25    2
     3    25    26    1
     4    26    27    2
     5    27    28    1
     6    27    29    1
     7    29    22    1
     8    22     1    1
     9     1     2   ar
    10     2     3   ar
    11     3     4   ar
    12     4     5   ar
    13     5    13    1
    14    13    14    2
    15    13    15   am
    16    15    16    1
    17    16    17    1
    18    17    18    1
    19    17    19    1
    20    19    20    1
    21     4     6   ar
    22     6     7    2
    23     6     8   ar
    24     8     9    1
    25     8    10   ar
    26    10    11    2
    27    10    12   ar
    28    12    30    1
    29    30    31    1
    30    31    32    1
    31    31    33    1
    32    29    24    1
    33     5     1   ar
    34    20    15    1
    35    12     3   ar
    36    18    21    1
@<TRIPOS>MOLECULE
*****
 33 36 0 0 0
SMALL
GASTEIGER

@<TRIPOS>ATOM
      1 C          62.2243   85.9563   11.8027 C.ar    1  UNL1        0.0140
      2 S          63.0421   86.6717   12.8368 S.2     1  UNL1       -0.0737
      3 C          63.1632   88.1075   12.4200 C.ar    1  UNL1        0.0982
      4 C          62.4202   88.2795   11.1283 C.ar    1  UNL1        0.0830
      5 C          61.8400   86.9499   10.7468 C.ar    1  UNL1        0.0641
      6 C          62.3681   89.6245   10.4663 C.ar    1  UNL1        0.2663
      7 O          61.6252   89.7965    9.1746 O.2     1  UNL1       -0.2668
      8 N          63.0590   90.7976   11.0961 N.ar    1  UNL1       -0.2467
      9 C          63.0068   92.1427   10.4341 C.3     1  UNL1        0.1382
     10 C          63.8018   90.6256   12.3878 C.ar    1  UNL1        0.3342
     11 O          64.4927   91.7988   13.0176 O.2     1  UNL1       -0.2462
     12 N          63.8540   89.2806   13.0498 N.ar    1  UNL1       -0.2757
     13 C          61.0194   86.6641    9.5240 C.2     1  UNL1        0.2716
     14 O          59.6223   87.1994    9.4164 O.2     1  UNL1       -0.2678
     15 N          61.5960   85.8431    8.4089 N.am    1  UNL1       -0.1620
     16 C          60.8991   85.4771    7.1321 C.3     1  UNL1        0.1561
     17 C          61.8430   84.6517    6.3089 C.3     1  UNL1        0.1648
     18 O          61.5569   84.0722    4.9553 O.3     1  UNL1       -0.3800
     19 C          63.1234   84.5076    7.0770 C.3     1  UNL1        0.2022
     20 O          62.9707   85.2440    8.3748 O.3     1  UNL1       -0.2601
     21 H          60.6571   84.3125    4.6843 H       1  UNL1        0.2105
     22 C          61.8555   84.5024   11.8212 C.3     1  UNL1        0.0445
     23 C          62.0306   83.9540   15.0334 C.3     1  UNL1        0.0495
     24 C          62.8335   83.2575   13.9750 C.2     1  UNL1        0.0639
     25 N          63.8579   82.1867   14.2073 N.2     1  UNL1       -0.1570
     26 N          64.4105   81.7769   12.8743 N.2     1  UNL1       -0.1570
     27 C          63.7277   82.5945   11.8183 C.2     1  UNL1        0.0639
     28 C          63.9759   82.5116   10.3414 C.3     1  UNL1        0.0495
     29 C          62.7530   83.5096   12.4985 C.3     1  UNL1        0.0805
     30 C          64.5970   89.1087   14.3415 C.3     1  UNL1        0.1109
     31 C          63.8917   89.3271   15.6471 C.3     1  UNL1        0.0228
     32 C          63.7364   90.7159   16.1925 C.3     1  UNL1        0.0020
     33 C          63.3416   88.1570   16.4075 C.3     1  UNL1        0.0020
@<TRIPOS>BOND
     1    23    24    1
     2    24    25    2
     3    25    26    1
     4    26    27    2
     5    27    28    1
     6    27    29    1
     7    29    22    1
     8    22     1    1
     9     1     2   ar
    10     2     3   ar
    11     3     4   ar
    12     4     5   ar
    13     5    13    1
    14    13    14    2
    15    13    15   am
    16    15    16    1
    17    16    17    1
    18    17    18    1
    19    17    19    1
    20    19    20    1
    21     4     6   ar
    22     6     7    2
    23     6     8   ar
    24     8     9    1
    25     8    10   ar
    26    10    11    2
    27    10    12   ar
    28    12    30    1
    29    30    31    1
    30    31    32    1
    31    31    33    1
    32    29    24    1
    33     5     1   ar
    34    20    15    1
    35    12     3   ar
    36    18    21    1
@<TRIPOS>MOLECULE
*****
 33 36 0 0 0
SMALL
GASTEIGER

@<TRIPOS>ATOM
      1 C          63.6983   87.8792   13.3481 C.ar    1  UNL1        0.0140
      2 S          63.1419   86.7996   12.4679 S.2     1  UNL1       -0.0737
      3 C          62.4216   87.4564   11.3278 C.ar    1  UNL1        0.0982
      4 C          62.5328   88.9419   11.5035 C.ar    1  UNL1        0.0830
      5 C          63.3219   89.2032   12.7521 C.ar    1  UNL1        0.0641
      6 C          61.9013   89.8647   10.5037 C.ar    1  UNL1        0.2663
      7 O          62.0125   91.3502   10.6793 O.2     1  UNL1       -0.2668
      8 N          61.1585   89.3020    9.3283 N.ar    1  UNL1       -0.2467
      9 C          60.5269   90.2249    8.3285 C.3     1  UNL1        0.1382
     10 C          61.0472   87.8166    9.1527 C.ar    1  UNL1        0.3342
     11 O          60.3044   87.2538    7.9772 O.2     1  UNL1       -0.2462
     12 N          61.6788   86.8937   10.1524 N.ar    1  UNL1       -0.2757
     13 C          63.6729   90.5518   13.3073 C.2     1  UNL1        0.2716
     14 O          63.1390   90.9747   14.6437 O.2     1  UNL1       -0.2678
     15 N          64.5578   91.4773   12.5260 N.am    1  UNL1       -0.1620
     16 C          64.9925   92.8488   12.9504 C.3     1  UNL1        0.1561
     17 C          65.8667   93.4130   11.8699 C.3     1  UNL1        0.1648
     18 O          66.5205   94.7629   11.8798 O.3     1  UNL1       -0.3800
     19 C          65.9723   92.3902   10.7777 C.3     1  UNL1        0.2022
     20 O          65.1633   91.1939   11.1833 O.3     1  UNL1       -0.2601
     21 H          66.2922   95.2267   12.7006 H       1  UNL1        0.2105
     22 C          64.4918   87.6713   14.6040 C.3     1  UNL1        0.0445
     23 C          63.1296   89.3872   17.0227 C.3     1  UNL1        0.0495
     24 C          63.2036   87.8915   16.9358 C.2     1  UNL1        0.0639
     25 N          62.6645   86.9219   17.9454 N.2     1  UNL1       -0.1570
     26 N          62.9574   85.5341   17.4576 N.2     1  UNL1       -0.1570
     27 C          63.6775   85.6458   16.1466 C.2     1  UNL1        0.0639
     28 C          64.1607   84.5015   15.3057 C.3     1  UNL1        0.0495
     29 C          63.8297   87.1028   15.8240 C.3     1  UNL1        0.0805
     30 C          61.5676   85.4081    9.9767 C.3     1  UNL1        0.1109
     31 C          62.6712   84.6478    9.3031 C.3     1  UNL1        0.0228
     32 C          62.9092   84.8173    7.8318 C.3     1  UNL1        0.0020
     33 C          63.5369   83.7181   10.1007 C.3     1  UNL1        0.0020
@<TRIPOS>BOND
     1    23    24    1
     2    24    25    2
     3    25    26    1
     4    26    27    2
     5    27    28    1
     6    27    29    1
     7    29    22    1
     8    22     1    1
     9     1     2   ar
    10     2     3   ar
    11     3     4   ar
    12     4     5   ar
    13     5    13    1
    14    13    14    2
    15    13    15   am
    16    15    16    1
    17    16    17    1
    18    17    18    1
    19    17    19    1
    20    19    20    1
    21     4     6   ar
    22     6     7    2
    23     6     8   ar
    24     8     9    1
    25     8    10   ar
    26    10    11    2
    27    10    12   ar
    28    12    30    1
    29    30    31    1
    30    31    32    1
    31    31    33    1
    32    29    24    1
    33     5     1   ar
    34    20    15    1
    35    12     3   ar
    36    18    21    1
@<TRIPOS>MOLECULE
*****
 33 36 0 0 0
SMALL
GASTEIGER

@<TRIPOS>ATOM
      1 C          63.2017   85.3062   11.9502 C.ar    1  UNL1        0.0140
      2 S          62.4778   85.0811   10.6559 S.2     1  UNL1       -0.0737
      3 C          61.7229   86.3339   10.3231 C.ar    1  UNL1        0.0982
      4 C          61.9803   87.3332   11.4117 C.ar    1  UNL1        0.0830
      5 C          62.8942   86.6981   12.4174 C.ar    1  UNL1        0.0641
      6 C          61.3492   88.6924   11.3467 C.ar    1  UNL1        0.2663
      7 O          61.6065   89.6917   12.4353 O.2     1  UNL1       -0.2668
      8 N          60.4607   89.0523   10.1930 N.ar    1  UNL1       -0.2467
      9 C          59.8296   90.4116   10.1280 C.3     1  UNL1        0.1382
     10 C          60.2033   88.0531    9.1044 C.ar    1  UNL1        0.3342
     11 O          59.3148   88.4130    7.9506 O.2     1  UNL1       -0.2462
     12 N          60.8344   86.6938    9.1694 N.ar    1  UNL1       -0.2757
     13 C          63.4101   87.3417   13.6702 C.2     1  UNL1        0.2716
     14 O          63.4098   86.5775   14.9609 O.2     1  UNL1       -0.2678
     15 N          63.9265   88.7495   13.6323 N.am    1  UNL1       -0.1620
     16 C          64.4707   89.5207   14.7980 C.3     1  UNL1        0.1561
     17 C          64.8698   90.8811   14.3082 C.3     1  UNL1        0.1648
     18 O          65.4624   91.9791   15.1407 O.3     1  UNL1       -0.3800
     19 C          64.5722   90.9508   12.8396 C.3     1  UNL1        0.2022
     20 O          63.9892   89.6334   12.4220 O.3     1  UNL1       -0.2601
     21 H          65.5520   91.6770   16.0581 H       1  UNL1        0.2105
     22 C          64.0790   84.3137   12.6539 C.3     1  UNL1        0.0445
     23 C          63.9260   81.7522   10.6376 C.3     1  UNL1        0.0495
     24 C          63.4776   81.7757   12.0689 C.2     1  UNL1        0.0639
     25 N          62.8803   80.6259   12.8246 N.2     1  UNL1       -0.1570
     26 N          62.5814   81.0927   14.2184 N.2     1  UNL1       -0.1570
     27 C          62.9941   82.5309   14.3241 C.2     1  UNL1        0.0639
     28 C          62.8739   83.3952   15.5441 C.3     1  UNL1        0.0495
     29 C          63.5480   82.9531   12.9956 C.3     1  UNL1        0.0805
     30 C          60.5770   85.6945    8.0807 C.3     1  UNL1        0.1109
     31 C          61.7191   85.1576    7.2701 C.3     1  UNL1        0.0228
     32 C          63.1313   85.3827    7.7230 C.3     1  UNL1        0.0020
     33 C          61.4492   84.3956    6.0065 C.3     1  UNL1        0.0020
@<TRIPOS>BOND
     1    23    24    1
     2    24    25    2
     3    25    26    1
     4    26    27    2
     5    27    28    1
     6    27    29    1
     7    29    22    1
     8    22     1    1
     9     1     2   ar
    10     2     3   ar
    11     3     4   ar
    12     4     5   ar
    13     5    13    1
    14    13    14    2
    15    13    15   am
    16    15    16    1
    17    16    17    1
    18    17    18    1
    19    17    19    1
    20    19    20    1
    21     4     6   ar
    22     6     7    2
    23     6     8   ar
    24     8     9    1
    25     8    10   ar
    26    10    11    2
    27    10    12   ar
    28    12    30    1
    29    30    31    1
    30    31    32    1
    31    31    33    1
    32    29    24    1
    33     5     1   ar
    34    20    15    1
    35    12     3   ar
    36    18    21    1
@<TRIPOS>MOLECULE
*****
 33 36 0 0 0
SMALL
GASTEIGER

@<TRIPOS>ATOM
      1 C          63.4155   86.4438   12.8264 C.ar    1  UNL1        0.0140
      2 S          62.6803   87.6851   12.4155 S.2     1  UNL1       -0.0737
      3 C          62.0384   87.4245   11.0850 C.ar    1  UNL1        0.0982
      4 C          62.3769   86.0223   10.6737 C.ar    1  UNL1        0.0830
      5 C          63.2280   85.4162   11.7499 C.ar    1  UNL1        0.0641
      6 C          61.8664   85.4785    9.3723 C.ar    1  UNL1        0.2663
      7 O          62.2049   84.0763    8.9609 O.2     1  UNL1       -0.2668
      8 N          61.0174   86.3370    8.4822 N.ar    1  UNL1       -0.2467
      9 C          60.5069   85.7931    7.1807 C.3     1  UNL1        0.1382
     10 C          60.6789   87.7391    8.8935 C.ar    1  UNL1        0.3342
     11 O          59.8299   88.5977    8.0034 O.2     1  UNL1       -0.2462
     12 N          61.1894   88.2830   10.1950 N.ar    1  UNL1       -0.2757
     13 C          63.7925   84.0265   11.7498 C.2     1  UNL1        0.2716
     14 O          64.9071   83.6698   10.8115 O.2     1  UNL1       -0.2678
     15 N          63.2423   82.9933   12.6879 N.am    1  UNL1       -0.1620
     16 C          63.7032   81.5704   12.8009 C.3     1  UNL1        0.1561
     17 C          62.8805   80.8994   13.8605 C.3     1  UNL1        0.1648
     18 O          63.0052   79.4710   14.3010 O.3     1  UNL1       -0.3800
     19 C          61.9110   81.9077   14.4024 C.3     1  UNL1        0.2022
     20 O          62.1347   83.2018   13.6776 O.3     1  UNL1       -0.2601
     21 H          63.7075   79.0361   13.7925 H       1  UNL1        0.2105
     22 C          64.2004   86.2621   14.0917 C.3     1  UNL1        0.0445
     23 C          64.4434   89.4370   14.8063 C.3     1  UNL1        0.0495
     24 C          63.8527   88.3774   15.6885 C.2     1  UNL1        0.0639
     25 N          63.2700   88.5911   17.0540 N.2     1  UNL1       -0.1570
     26 N          62.7981   87.2639   17.5695 N.2     1  UNL1       -0.1570
     27 C          63.0892   86.2299   16.5226 C.2     1  UNL1        0.0639
     28 C          62.7824   84.7650   16.6209 C.3     1  UNL1        0.0495
     29 C          63.7410   86.9181   15.3600 C.3     1  UNL1        0.0805
     30 C          60.8509   89.6853   10.6062 C.3     1  UNL1        0.1109
     31 C          59.6585   89.9438   11.4787 C.3     1  UNL1        0.0228
     32 C          59.1162   88.8504   12.3508 C.3     1  UNL1        0.0020
     33 C          59.0083   91.2955   11.4791 C.3     1  UNL1        0.0020
@<TRIPOS>BOND
     1    23    24    1
     2    24    25    2
     3    25    26    1
     4    26    27    2
     5    27    28    1
     6    27    29    1
     7    29    22    1
     8    22     1    1
     9     1     2   ar
    10     2     3   ar
    11     3     4   ar
    12     4     5   ar
    13     5    13    1
    14    13    14    2
    15    13    15   am
    16    15    16    1
    17    16    17    1
    18    17    18    1
    19    17    19    1
    20    19    20    1
    21     4     6   ar
    22     6     7    2
    23     6     8   ar
    24     8     9    1
    25     8    10   ar
    26    10    11    2
    27    10    12   ar
    28    12    30    1
    29    30    31    1
    30    31    32    1
    31    31    33    1
    32    29    24    1
    33     5     1   ar
    34    20    15    1
    35    12     3   ar
    36    18    21    1
@<TRIPOS>MOLECULE
*****
 33 36 0 0 0
SMALL
GASTEIGER

@<TRIPOS>ATOM
      1 C          62.5707   86.3103   10.4027 C.ar    1  UNL1        0.0140
      2 S          62.8622   84.8677   10.6919 S.2     1  UNL1       -0.0737
      3 C          63.2172   84.7487   12.1444 C.ar    1  UNL1        0.0982
      4 C          63.1450   86.1179   12.7529 C.ar    1  UNL1        0.0830
      5 C          62.7454   87.0830   11.6764 C.ar    1  UNL1        0.0641
      6 C          63.4525   86.3088   14.2086 C.ar    1  UNL1        0.2663
      7 O          63.3803   87.6780   14.8171 O.2     1  UNL1       -0.2668
      8 N          63.8321   85.1306   15.0558 N.ar    1  UNL1       -0.2467
      9 C          64.1395   85.3217   16.5115 C.3     1  UNL1        0.1382
     10 C          63.9042   83.7616   14.4474 C.ar    1  UNL1        0.3342
     11 O          64.2839   82.5833   15.2946 O.2     1  UNL1       -0.2462
     12 N          63.5968   83.5705   12.9916 N.ar    1  UNL1       -0.2757
     13 C          62.5542   88.5613   11.8442 C.2     1  UNL1        0.2716
     14 O          63.7350   89.4434   12.1226 O.2     1  UNL1       -0.2678
     15 N          61.1822   89.1574   11.7336 N.am    1  UNL1       -0.1620
     16 C          60.8380   90.6103   11.8770 C.3     1  UNL1        0.1561
     17 C          59.3566   90.7561   11.6923 C.3     1  UNL1        0.1648
     18 O          58.5825   92.0394   11.7542 O.3     1  UNL1       -0.3800
     19 C          58.7852   89.3933   11.4347 C.3     1  UNL1        0.2022
     20 O          59.9135   88.4053   11.4603 O.3     1  UNL1       -0.2601
     21 H          59.1891   92.7746   11.9343 H       1  UNL1        0.2105
     22 C          62.1740   86.8803    9.0731 C.3     1  UNL1        0.0445
     23 C          58.9729   87.0315    8.4567 C.3     1  UNL1        0.0495
     24 C          59.9536   86.1029    7.8040 C.2     1  UNL1        0.0639
     25 N          59.6351   85.0808    6.7534 N.2     1  UNL1       -0.1570
     26 N          60.9096   84.3796    6.3875 N.2     1  UNL1       -0.1570
     27 C          62.0157   84.9683    7.2118 C.2     1  UNL1        0.0639
     28 C          63.4593   84.5631    7.1684 C.3     1  UNL1        0.0495
     29 C          61.4250   86.0334    8.0874 C.3     1  UNL1        0.0805
     30 C          63.6689   82.2013   12.3832 C.3     1  UNL1        0.1109
     31 C          62.6326   81.1726   12.7262 C.3     1  UNL1        0.0228
     32 C          61.5575   81.4941   13.7217 C.3     1  UNL1        0.0020
     33 C          62.6713   79.8225   12.0739 C.3     1  UNL1        0.0020
@<TRIPOS>BOND
     1    23    24    1
     2    24    25    2
     3    25    26    1
     4    26    27    2
     5    27    28    1
     6    27    29    1
     7    29    22    1
     8    22     1    1
     9     1     2   ar
    10     2     3   ar
    11     3     4   ar
    12     4     5   ar
    13     5    13    1
    14    13    14    2
    15    13    15   am
    16    15    16    1
    17    16    17    1
    18    17    18    1
    19    17    19    1
    20    19    20    1
    21     4     6   ar
    22     6     7    2
    23     6     8   ar
    24     8     9    1
    25     8    10   ar
    26    10    11    2
    27    10    12   ar
    28    12    30    1
    29    30    31    1
    30    31    32    1
    31    31    33    1
    32    29    24    1
    33     5     1   ar
    34    20    15    1
    35    12     3   ar
    36    18    21    1
@<TRIPOS>MOLECULE
*****
 33 36 0 0 0
SMALL
GASTEIGER

@<TRIPOS>ATOM
      1 C          62.5935   85.9173   12.0185 C.ar    1  UNL1        0.0140
      2 S          63.1744   86.5224   13.2620 S.2     1  UNL1       -0.0737
      3 C          63.4555   87.9696   12.9856 C.ar    1  UNL1        0.0982
      4 C          63.0483   88.2590   11.5712 C.ar    1  UNL1        0.0830
      5 C          62.5156   86.9906   10.9735 C.ar    1  UNL1        0.0641
      6 C          63.2152   89.6401   11.0103 C.ar    1  UNL1        0.2663
      7 O          62.8081   89.9295    9.5960 O.2     1  UNL1       -0.2668
      8 N          63.7894   90.7319   11.8638 N.ar    1  UNL1       -0.2467
      9 C          63.9563   92.1131   11.3029 C.3     1  UNL1        0.1382
     10 C          64.1966   90.4425   13.2781 C.ar    1  UNL1        0.3342
     11 O          64.7707   91.5343   14.1317 O.2     1  UNL1       -0.2462
     12 N          64.0296   89.0614   13.8391 N.ar    1  UNL1       -0.2757
     13 C          61.9961   86.8246    9.5762 C.2     1  UNL1        0.2716
     14 O          62.5073   85.7090    8.7136 O.2     1  UNL1       -0.2678
     15 N          60.9653   87.7742    9.0414 N.am    1  UNL1       -0.1620
     16 C          60.3557   87.7337    7.6715 C.3     1  UNL1        0.1561
     17 C          59.3769   88.8654    7.5661 C.3     1  UNL1        0.1648
     18 O          58.5403   89.1987    6.3666 O.3     1  UNL1       -0.3800
     19 C          59.3816   89.6054    8.8709 C.3     1  UNL1        0.2022
     20 O          60.3634   88.9309    9.7826 O.3     1  UNL1       -0.2601
     21 H          58.7269   88.5652    5.6561 H       1  UNL1        0.2105
     22 C          62.1657   84.4896   11.8495 C.3     1  UNL1        0.0445
     23 C          64.3494   82.6313   10.2914 C.3     1  UNL1        0.0495
     24 C          63.9824   82.5317   11.7425 C.2     1  UNL1        0.0639
     25 N          64.5547   81.5605   12.7320 N.2     1  UNL1       -0.1570
     26 N          63.9046   81.8145   14.0598 N.2     1  UNL1       -0.1570
     27 C          62.9306   82.9425   13.8908 C.2     1  UNL1        0.0639
     28 C          62.0612   83.5251   14.9654 C.3     1  UNL1        0.0495
     29 C          62.9786   83.3859   12.4586 C.3     1  UNL1        0.0805
     30 C          64.4369   88.7720   15.2535 C.3     1  UNL1        0.1109
     31 C          63.4638   88.9908   16.3738 C.3     1  UNL1        0.0228
     32 C          62.9097   87.8172   17.1258 C.3     1  UNL1        0.0020
     33 C          63.0447   90.3832   16.7422 C.3     1  UNL1        0.0020
@<TRIPOS>BOND
     1    23    24    1
     2    24    25    2
     3    25    26    1
     4    26    27    2
     5    27    28    1
     6    27    29    1
     7    29    22    1
     8    22     1    1
     9     1     2   ar
    10     2     3   ar
    11     3     4   ar
    12     4     5   ar
    13     5    13    1
    14    13    14    2
    15    13    15   am
    16    15    16    1
    17    16    17    1
    18    17    18    1
    19    17    19    1
    20    19    20    1
    21     4     6   ar
    22     6     7    2
    23     6     8   ar
    24     8     9    1
    25     8    10   ar
    26    10    11    2
    27    10    12   ar
    28    12    30    1
    29    30    31    1
    30    31    32    1
    31    31    33    1
    32    29    24    1
    33     5     1   ar
    34    20    15    1
    35    12     3   ar
    36    18    21    1
@<TRIPOS>MOLECULE
*****
 33 36 0 0 0
SMALL
GASTEIGER

@<TRIPOS>ATOM
      1 C          63.2961   86.7495   12.5080 C.ar    1  UNL1        0.0140
      2 S          62.6588   85.9971   11.3776 S.2     1  UNL1       -0.0737
      3 C          61.8642   86.9727   10.5611 C.ar    1  UNL1        0.0982
      4 C          62.0104   88.3281   11.1869 C.ar    1  UNL1        0.0830
      5 C          62.8954   88.1902   12.3901 C.ar    1  UNL1        0.0641
      6 C          61.3188   89.5129   10.5802 C.ar    1  UNL1        0.2663
      7 O          61.4650   90.8683   11.2059 O.2     1  UNL1       -0.2668
      8 N          60.4810   89.3422    9.3477 N.ar    1  UNL1       -0.2467
      9 C          59.7894   90.5270    8.7410 C.3     1  UNL1        0.1382
     10 C          60.3348   87.9869    8.7220 C.ar    1  UNL1        0.3342
     11 O          59.4970   87.8162    7.4895 O.2     1  UNL1       -0.2462
     12 N          61.0265   86.8021    9.3287 N.ar    1  UNL1       -0.2757
     13 C          63.3073   89.2983   13.3134 C.2     1  UNL1        0.2716
     14 O          63.0002   89.2066   14.7788 O.2     1  UNL1       -0.2678
     15 N          64.0262   90.4980   12.7713 N.am    1  UNL1       -0.1620
     16 C          64.4978   91.6779   13.5684 C.3     1  UNL1        0.1561
     17 C          65.1628   92.6375   12.6267 C.3     1  UNL1        0.1648
     18 O          65.7800   93.9530   12.9988 O.3     1  UNL1       -0.3800
     19 C          65.1022   92.0507   11.2476 C.3     1  UNL1        0.2022
     20 O          64.3998   90.7284   11.3370 O.3     1  UNL1       -0.2601
     21 H          65.6852   94.0961   13.9535 H       1  UNL1        0.2105
     22 C          64.1791   86.1640   13.5699 C.3     1  UNL1        0.0445
     23 C          62.8823   85.6665   16.5229 C.3     1  UNL1        0.0495
     24 C          63.2487   84.6032   15.5303 C.2     1  UNL1        0.0639
     25 N          63.0833   83.1246   15.7208 N.2     1  UNL1       -0.1570
     26 N          63.5771   82.4395   14.4812 N.2     1  UNL1       -0.1570
     27 C          64.0477   83.4946   13.5246 C.2     1  UNL1        0.0639
     28 C          64.6207   83.2546   12.1593 C.3     1  UNL1        0.0495
     29 C          63.8448   84.8319   14.1729 C.3     1  UNL1        0.0805
     30 C          60.8802   85.4467    8.7029 C.3     1  UNL1        0.1109
     31 C          61.8656   84.9876    7.6693 C.3     1  UNL1        0.0228
     32 C          63.3325   84.9803    7.9826 C.3     1  UNL1        0.0020
     33 C          61.3841   84.5357    6.3225 C.3     1  UNL1        0.0020
@<TRIPOS>BOND
     1    23    24    1
     2    24    25    2
     3    25    26    1
     4    26    27    2
     5    27    28    1
     6    27    29    1
     7    29    22    1
     8    22     1    1
     9     1     2   ar
    10     2     3   ar
    11     3     4   ar
    12     4     5   ar
    13     5    13    1
    14    13    14    2
    15    13    15   am
    16    15    16    1
    17    16    17    1
    18    17    18    1
    19    17    19    1
    20    19    20    1
    21     4     6   ar
    22     6     7    2
    23     6     8   ar
    24     8     9    1
    25     8    10   ar
    26    10    11    2
    27    10    12   ar
    28    12    30    1
    29    30    31    1
    30    31    32    1
    31    31    33    1
    32    29    24    1
    33     5     1   ar
    34    20    15    1
    35    12     3   ar
    36    18    21    1
@<TRIPOS>MOLECULE
*****
 33 36 0 0 0
SMALL
GASTEIGER

@<TRIPOS>ATOM
      1 C          60.6645   95.2348   -0.7643 C.ar    1  UNL1        0.0140
      2 S          59.1896   94.9695   -0.6980 S.2     1  UNL1       -0.0737
      3 C          58.6779   94.8427   -2.1023 C.ar    1  UNL1        0.0982
      4 C          59.8365   95.0295   -3.0365 C.ar    1  UNL1        0.0830
      5 C          61.0643   95.2719   -2.2096 C.ar    1  UNL1        0.0641
      6 C          59.6238   94.9548   -4.5195 C.ar    1  UNL1        0.2663
      7 O          60.7824   95.1416   -5.4537 O.2     1  UNL1       -0.2668
      8 N          58.2525   94.6932   -5.0682 N.ar    1  UNL1       -0.2467
      9 C          58.0398   94.6185   -6.5512 C.3     1  UNL1        0.1382
     10 C          57.0939   94.5064   -4.1340 C.ar    1  UNL1        0.3342
     11 O          55.7226   94.2448   -4.6828 O.2     1  UNL1       -0.2462
     12 N          57.3066   94.5811   -2.6510 N.ar    1  UNL1       -0.2757
     13 C          62.4488   95.5095   -2.7356 C.2     1  UNL1        0.2716
     14 O          63.1247   96.8277   -2.4996 O.2     1  UNL1       -0.2678
     15 N          63.1574   94.4291   -3.4975 N.am    1  UNL1       -0.1620
     16 C          64.5363   94.5207   -4.0808 C.3     1  UNL1        0.1561
     17 C          64.8426   93.2156   -4.7537 C.3     1  UNL1        0.1648
     18 O          66.1151   92.8695   -5.4685 O.3     1  UNL1       -0.3800
     19 C          63.6531   92.3173   -4.5862 C.3     1  UNL1        0.2022
     20 O          62.6116   93.0673   -3.8099 O.3     1  UNL1       -0.2601
     21 H          66.7222   93.6252   -5.4321 H       1  UNL1        0.2105
     22 C          61.5790   95.4290    0.4087 C.3     1  UNL1        0.0445
     23 C          60.1934   93.2985    2.4558 C.3     1  UNL1        0.0495
     24 C          61.6154   93.2665    1.9796 C.2     1  UNL1        0.0639
     25 N          62.6502   92.2497    2.3607 N.2     1  UNL1       -0.1570
     26 N          63.9267   92.6006    1.6553 N.2     1  UNL1       -0.1570
     27 C          63.6808   93.8341    0.8382 C.2     1  UNL1        0.0639
     28 C          64.6867   94.5334   -0.0273 C.3     1  UNL1        0.0495
     29 C          62.2523   94.2458    1.0386 C.3     1  UNL1        0.0805
     30 C          56.1479   94.3943   -1.7168 C.3     1  UNL1        0.1109
     31 C          55.1628   95.5067   -1.5120 C.3     1  UNL1        0.0228
     32 C          53.7132   95.2933   -1.8334 C.3     1  UNL1        0.0020
     33 C          55.6271   96.8323   -0.9856 C.3     1  UNL1        0.0020
@<TRIPOS>BOND
     1    23    24    1
     2    24    25    2
     3    25    26    1
     4    26    27    2
     5    27    28    1
     6    27    29    1
     7    29    22    1
     8    22     1    1
     9     1     2   ar
    10     2     3   ar
    11     3     4   ar
    12     4     5   ar
    13     5    13    1
    14    13    14    2
    15    13    15   am
    16    15    16    1
    17    16    17    1
    18    17    18    1
    19    17    19    1
    20    19    20    1
    21     4     6   ar
    22     6     7    2
    23     6     8   ar
    24     8     9    1
    25     8    10   ar
    26    10    11    2
    27    10    12   ar
    28    12    30    1
    29    30    31    1
    30    31    32    1
    31    31    33    1
    32    29    24    1
    33     5     1   ar
    34    20    15    1
    35    12     3   ar
    36    18    21    1
