@<TRIPOS>MOLECULE
*****
 33 37 0 0 0
SMALL
GASTEIGER

@<TRIPOS>ATOM
      1 C          63.0074   87.1183   12.3709 C.2     1  UNL1        0.2506
      2 O          63.5317   87.4919   13.7257 O.2     1  UNL1       -0.2699
      3 N          62.3845   88.1633   11.4935 N.am    1  UNL1       -0.2723
      4 C          61.8602   87.7898   10.1386 C.3     1  UNL1        0.1257
      5 C          61.2372   88.8348    9.2612 C.3     1  UNL1        0.1637
      6 O          61.1385   90.2534    9.7387 O.3     1  UNL1       -0.3502
      7 C          61.6627   90.6269   11.0935 C.3     1  UNL1        0.1622
      8 C          62.2857   89.5819   11.9710 C.3     1  UNL1        0.1096
      9 C          63.4023   81.4441   10.4611 C.3     1  UNL1        0.0311
     10 C          63.3036   82.8627   10.9385 C.ar    1  UNL1       -0.0203
     11 C          63.2432   83.9856    9.9459 C.ar    1  UNL1       -0.0040
     12 C          63.1445   85.4042   10.4234 C.ar    1  UNL1        0.0058
     13 C          63.1062   85.6998   11.8934 C.ar    1  UNL1        0.0729
     14 C          63.1665   84.5768   12.8860 C.ar    1  UNL1        0.1069
     15 C          63.2653   83.1583   12.4086 C.ar    1  UNL1        0.0168
     16 N          63.1282   84.8724   14.3562 N.ar    1  UNL1       -0.1477
     17 N          61.9067   84.8584   15.2267 N.ar    1  UNL1       -0.1447
     18 C          62.3281   85.2112   16.6224 C.ar    1  UNL1        0.1446
     19 C          63.8101   85.4433   16.6144 C.ar    1  UNL1        0.1446
     20 N          64.3045   85.2339   15.2138 N.ar    1  UNL1       -0.1447
     21 C          62.8100   89.9554   13.3258 C.3     1  UNL1        0.0484
     22 C          64.0140   90.8420   13.4458 C.ar    1  UNL1       -0.0228
     23 C          64.6477   91.4172   12.2140 C.ar    1  UNL1        0.0164
     24 C          65.8517   92.3037   12.3340 C.ar    1  UNL1        0.1026
     25 C          66.4221   92.6150   13.6859 C.ar    1  UNL1        0.0206
     26 C          65.7884   92.0398   14.9178 C.ar    1  UNL1       -0.0030
     27 C          64.5844   91.1533   14.7977 C.ar    1  UNL1       -0.0256
     28 C          63.9507   90.5780   16.0297 C.3     1  UNL1        0.0307
     29 N          66.4854   92.8789   11.1020 N.ar    1  UNL1       -0.1478
     30 N          67.7408   92.3872   10.4447 N.ar    1  UNL1       -0.1447
     31 C          68.0062   93.2512    9.2475 C.ar    1  UNL1        0.1446
     32 C          66.9147   94.2769    9.1651 C.ar    1  UNL1        0.1446
     33 N          65.9748   94.0468   10.3112 N.ar    1  UNL1       -0.1447
@<TRIPOS>BOND
     1     9    10    1
     2    10    11   ar
     3    11    12   ar
     4    12    13   ar
     5    13     1    1
     6     1     2    2
     7     1     3   am
     8     3     4    1
     9     4     5    1
    10     5     6    1
    11     6     7    1
    12     7     8    1
    13     8    21    1
    14    21    22    1
    15    22    23   ar
    16    23    24   ar
    17    24    29    1
    18    29    30   ar
    19    30    31   ar
    20    31    32   ar
    21    32    33   ar
    22    24    25   ar
    23    25    26   ar
    24    26    27   ar
    25    27    28    1
    26    13    14   ar
    27    14    16    1
    28    16    17   ar
    29    17    18   ar
    30    18    19   ar
    31    19    20   ar
    32    14    15   ar
    33    15    10   ar
    34     8     3    1
    35    27    22   ar
    36    20    16   ar
    37    33    29   ar
@<TRIPOS>MOLECULE
*****
 33 37 0 0 0
SMALL
GASTEIGER

@<TRIPOS>ATOM
      1 C          62.7771   86.9414   11.9692 C.2     1  UNL1        0.2506
      2 O          63.5919   87.5501   13.0717 O.2     1  UNL1       -0.2699
      3 N          61.7620   87.7714   11.2409 N.am    1  UNL1       -0.2723
      4 C          60.9471   87.1627   10.1383 C.3     1  UNL1        0.1257
      5 C          59.9319   87.9928    9.4100 C.3     1  UNL1        0.1637
      6 O          59.7316   89.4315    9.7842 O.3     1  UNL1       -0.3502
      7 C          60.5464   90.0401   10.8867 C.3     1  UNL1        0.1622
      8 C          61.5616   89.2101   11.6151 C.3     1  UNL1        0.1096
      9 C          63.5785   81.1866   10.4725 C.3     1  UNL1        0.0311
     10 C          63.3781   82.6253   10.8467 C.ar    1  UNL1       -0.0203
     11 C          63.2138   83.6628    9.7760 C.ar    1  UNL1       -0.0040
     12 C          63.0135   85.1015   10.1502 C.ar    1  UNL1        0.0058
     13 C          62.9775   85.5027   11.5950 C.ar    1  UNL1        0.0729
     14 C          63.1418   84.4652   12.6657 C.ar    1  UNL1        0.1069
     15 C          63.3421   83.0265   12.2916 C.ar    1  UNL1        0.0168
     16 N          63.1057   84.8663   14.1107 N.ar    1  UNL1       -0.1477
     17 N          64.2586   85.4044   14.9053 N.ar    1  UNL1       -0.1447
     18 C          63.7760   85.6704   16.3004 C.ar    1  UNL1        0.1446
     19 C          62.3248   85.2967   16.3680 C.ar    1  UNL1        0.1446
     20 N          61.9106   84.7997   15.0147 N.ar    1  UNL1       -0.1447
     21 C          62.3765   89.8188   12.7176 C.3     1  UNL1        0.0484
     22 C          63.5380   90.7089   12.3881 C.ar    1  UNL1       -0.0228
     23 C          64.5366   91.0627   13.4499 C.ar    1  UNL1        0.0164
     24 C          65.6982   91.9528   13.1205 C.ar    1  UNL1        0.1026
     25 C          65.8611   92.4890   11.7291 C.ar    1  UNL1        0.0206
     26 C          64.8625   92.1352   10.6673 C.ar    1  UNL1       -0.0030
     27 C          63.7010   91.2451   10.9968 C.ar    1  UNL1       -0.0256
     28 C          62.7024   90.8913    9.9348 C.3     1  UNL1        0.0307
     29 N          66.6968   92.3066   14.1824 N.ar    1  UNL1       -0.1478
     30 N          68.1470   92.6190   13.9600 N.ar    1  UNL1       -0.1447
     31 C          68.7670   92.9156   15.2933 C.ar    1  UNL1        0.1446
     32 C          67.7000   92.7866   16.3397 C.ar    1  UNL1        0.1446
     33 N          66.4205   92.4102   15.6531 N.ar    1  UNL1       -0.1447
@<TRIPOS>BOND
     1     9    10    1
     2    10    11   ar
     3    11    12   ar
     4    12    13   ar
     5    13     1    1
     6     1     2    2
     7     1     3   am
     8     3     4    1
     9     4     5    1
    10     5     6    1
    11     6     7    1
    12     7     8    1
    13     8    21    1
    14    21    22    1
    15    22    23   ar
    16    23    24   ar
    17    24    29    1
    18    29    30   ar
    19    30    31   ar
    20    31    32   ar
    21    32    33   ar
    22    24    25   ar
    23    25    26   ar
    24    26    27   ar
    25    27    28    1
    26    13    14   ar
    27    14    16    1
    28    16    17   ar
    29    17    18   ar
    30    18    19   ar
    31    19    20   ar
    32    14    15   ar
    33    15    10   ar
    34     8     3    1
    35    27    22   ar
    36    20    16   ar
    37    33    29   ar
@<TRIPOS>MOLECULE
*****
 33 37 0 0 0
SMALL
GASTEIGER

@<TRIPOS>ATOM
      1 C          63.4539   87.4515   13.1824 C.2     1  UNL1        0.2506
      2 O          63.4340   88.1221   11.8408 O.2     1  UNL1       -0.2699
      3 N          63.3629   88.2741   14.4333 N.am    1  UNL1       -0.2723
      4 C          63.3828   87.6035   15.7750 C.3     1  UNL1        0.1257
      5 C          63.2919   88.4261   17.0260 C.3     1  UNL1        0.1637
      6 O          63.1811   89.9193   16.9354 O.3     1  UNL1       -0.3502
      7 C          63.1612   90.5899   15.5938 C.3     1  UNL1        0.1622
      8 C          63.2521   89.7673   14.3427 C.3     1  UNL1        0.1096
      9 C          63.8971   81.4789   13.5448 C.3     1  UNL1        0.0311
     10 C          63.7863   82.9720   13.4542 C.ar    1  UNL1       -0.0203
     11 C          64.4531   83.8373   14.4820 C.ar    1  UNL1       -0.0040
     12 C          64.3423   85.3305   14.3914 C.ar    1  UNL1        0.0058
     13 C          63.5647   85.9583   13.2730 C.ar    1  UNL1        0.0729
     14 C          62.8978   85.0931   12.2451 C.ar    1  UNL1        0.1069
     15 C          63.0086   83.5999   12.3357 C.ar    1  UNL1        0.0168
     16 N          62.1201   85.7209   11.1266 N.ar    1  UNL1       -0.1477
     17 N          62.4440   85.6250    9.6651 N.ar    1  UNL1       -0.1447
     18 C          61.4061   86.3997    8.9084 C.ar    1  UNL1        0.1446
     19 C          60.4407   86.9744    9.9023 C.ar    1  UNL1        0.1446
     20 N          60.8819   86.5548   11.2732 N.ar    1  UNL1       -0.1447
     21 C          63.2323   90.4378   13.0012 C.3     1  UNL1        0.0484
     22 C          64.3721   91.3205   12.5869 C.ar    1  UNL1       -0.0228
     23 C          65.4372   91.6848   13.5782 C.ar    1  UNL1        0.0164
     24 C          66.5771   92.5675   13.1640 C.ar    1  UNL1        0.1026
     25 C          66.6518   93.0860   11.7584 C.ar    1  UNL1        0.0206
     26 C          65.5866   92.7217   10.7671 C.ar    1  UNL1       -0.0030
     27 C          64.4468   91.8390   11.1814 C.ar    1  UNL1       -0.0256
     28 C          63.3816   91.4747   10.1900 C.3     1  UNL1        0.0307
     29 N          67.6422   92.9318   14.1554 N.ar    1  UNL1       -0.1478
     30 N          67.4707   93.8319   15.3430 N.ar    1  UNL1       -0.1447
     31 C          68.7883   93.9164   16.0548 C.ar    1  UNL1        0.1446
     32 C          69.7742   93.0684   15.3071 C.ar    1  UNL1        0.1446
     33 N          69.0659   92.4599   14.1332 N.ar    1  UNL1       -0.1447
@<TRIPOS>BOND
     1     9    10    1
     2    10    11   ar
     3    11    12   ar
     4    12    13   ar
     5    13     1    1
     6     1     2    2
     7     1     3   am
     8     3     4    1
     9     4     5    1
    10     5     6    1
    11     6     7    1
    12     7     8    1
    13     8    21    1
    14    21    22    1
    15    22    23   ar
    16    23    24   ar
    17    24    29    1
    18    29    30   ar
    19    30    31   ar
    20    31    32   ar
    21    32    33   ar
    22    24    25   ar
    23    25    26   ar
    24    26    27   ar
    25    27    28    1
    26    13    14   ar
    27    14    16    1
    28    16    17   ar
    29    17    18   ar
    30    18    19   ar
    31    19    20   ar
    32    14    15   ar
    33    15    10   ar
    34     8     3    1
    35    27    22   ar
    36    20    16   ar
    37    33    29   ar
@<TRIPOS>MOLECULE
*****
 33 37 0 0 0
SMALL
GASTEIGER

@<TRIPOS>ATOM
      1 C          65.0352   91.3240   12.7116 C.2     1  UNL1        0.2506
      2 O          65.7951   90.8684   13.9219 O.2     1  UNL1       -0.2699
      3 N          63.9127   90.4879   12.1723 N.am    1  UNL1       -0.2723
      4 C          63.1527   90.9435   10.9618 C.3     1  UNL1        0.1257
      5 C          62.0302   90.1075   10.4225 C.3     1  UNL1        0.1637
      6 O          61.6675   88.8159   11.0935 O.3     1  UNL1       -0.3502
      7 C          62.4274   88.3603   12.3039 C.3     1  UNL1        0.1622
      8 C          63.5500   89.1964   12.8433 C.3     1  UNL1        0.1096
      9 C          66.4859   96.4903   10.0275 C.3     1  UNL1        0.0311
     10 C          66.1233   95.1987   10.6985 C.ar    1  UNL1       -0.0203
     11 C          65.2061   94.2294   10.0136 C.ar    1  UNL1       -0.0040
     12 C          64.8434   92.9378   10.6846 C.ar    1  UNL1        0.0058
     13 C          65.3979   92.6155   12.0406 C.ar    1  UNL1        0.0729
     14 C          66.3151   93.5849   12.7255 C.ar    1  UNL1        0.1069
     15 C          66.6778   94.8765   12.0545 C.ar    1  UNL1        0.0168
     16 N          66.8696   93.2626   14.0815 N.ar    1  UNL1       -0.1477
     17 N          68.2939   92.9068   14.3898 N.ar    1  UNL1       -0.1447
     18 C          68.4018   92.6639   15.8661 C.ar    1  UNL1        0.1446
     19 C          67.0443   92.8696   16.4701 C.ar    1  UNL1        0.1446
     20 N          66.0974   93.2396   15.3672 N.ar    1  UNL1       -0.1447
     21 C          64.3099   88.7408   14.0536 C.3     1  UNL1        0.0484
     22 C          63.9009   87.4868   14.7679 C.ar    1  UNL1       -0.0228
     23 C          64.0392   86.1571   14.0877 C.ar    1  UNL1        0.0164
     24 C          63.6302   84.9031   14.8019 C.ar    1  UNL1        0.1026
     25 C          63.0828   84.9788   16.1964 C.ar    1  UNL1        0.0206
     26 C          62.9444   86.3085   16.8766 C.ar    1  UNL1       -0.0030
     27 C          63.3535   87.5625   16.1623 C.ar    1  UNL1       -0.0256
     28 C          63.2151   88.8922   16.8426 C.3     1  UNL1        0.0307
     29 N          63.7686   83.5733   14.1217 N.ar    1  UNL1       -0.1478
     30 N          63.3303   82.2499   14.6753 N.ar    1  UNL1       -0.1447
     31 C          63.6604   81.1922   13.6642 C.ar    1  UNL1        0.1446
     32 C          64.3026   81.8620   12.4856 C.ar    1  UNL1        0.1446
     33 N          64.3695   83.3336   12.7684 N.ar    1  UNL1       -0.1447
@<TRIPOS>BOND
     1     9    10    1
     2    10    11   ar
     3    11    12   ar
     4    12    13   ar
     5    13     1    1
     6     1     2    2
     7     1     3   am
     8     3     4    1
     9     4     5    1
    10     5     6    1
    11     6     7    1
    12     7     8    1
    13     8    21    1
    14    21    22    1
    15    22    23   ar
    16    23    24   ar
    17    24    29    1
    18    29    30   ar
    19    30    31   ar
    20    31    32   ar
    21    32    33   ar
    22    24    25   ar
    23    25    26   ar
    24    26    27   ar
    25    27    28    1
    26    13    14   ar
    27    14    16    1
    28    16    17   ar
    29    17    18   ar
    30    18    19   ar
    31    19    20   ar
    32    14    15   ar
    33    15    10   ar
    34     8     3    1
    35    27    22   ar
    36    20    16   ar
    37    33    29   ar
@<TRIPOS>MOLECULE
*****
 33 37 0 0 0
SMALL
GASTEIGER

@<TRIPOS>ATOM
      1 C          61.0466   86.7283   10.2025 C.2     1  UNL1        0.2506
      2 O          60.6540   86.8876   11.6414 O.2     1  UNL1       -0.2699
      3 N          62.0555   85.6896    9.8111 N.am    1  UNL1       -0.2723
      4 C          62.4482   85.5302    8.3721 C.3     1  UNL1        0.1257
      5 C          63.4570   84.4916    7.9806 C.3     1  UNL1        0.1637
      6 O          64.0733   83.6123    9.0280 O.3     1  UNL1       -0.3502
      7 C          63.6807   83.7716   10.4669 C.3     1  UNL1        0.1622
      8 C          62.6717   84.8103   10.8584 C.3     1  UNL1        0.1096
      9 C          58.5816   90.2455    6.0129 C.3     1  UNL1        0.0311
     10 C          59.1978   89.3662    7.0603 C.ar    1  UNL1       -0.0203
     11 C          58.9486   87.8872    7.0394 C.ar    1  UNL1       -0.0040
     12 C          59.5649   87.0079    8.0868 C.ar    1  UNL1        0.0058
     13 C          60.4303   87.6076    9.1551 C.ar    1  UNL1        0.0729
     14 C          60.6795   89.0866    9.1760 C.ar    1  UNL1        0.1069
     15 C          60.0633   89.9659    8.1286 C.ar    1  UNL1        0.0168
     16 N          61.5450   89.6863   10.2444 N.ar    1  UNL1       -0.1477
     17 N          62.9533   90.1720   10.0688 N.ar    1  UNL1       -0.1447
     18 C          63.4328   90.6915   11.3917 C.ar    1  UNL1        0.1446
     19 C          62.3209   90.5269   12.3850 C.ar    1  UNL1        0.1446
     20 N          61.1542   89.9056   11.6759 N.ar    1  UNL1       -0.1447
     21 C          62.2791   84.9697   12.2973 C.3     1  UNL1        0.0484
     22 C          63.2750   85.4845   13.2939 C.ar    1  UNL1       -0.0228
     23 C          63.3199   86.9474   13.6221 C.ar    1  UNL1        0.0164
     24 C          64.3157   87.4623   14.6187 C.ar    1  UNL1        0.1026
     25 C          65.2667   86.5142   15.2871 C.ar    1  UNL1        0.0206
     26 C          65.2218   85.0513   14.9589 C.ar    1  UNL1       -0.0030
     27 C          64.2259   84.5364   13.9623 C.ar    1  UNL1       -0.0256
     28 C          64.1810   83.0734   13.6341 C.3     1  UNL1        0.0307
     29 N          64.3606   88.9253   14.9469 N.ar    1  UNL1       -0.1478
     30 N          63.4882   89.6331   15.9410 N.ar    1  UNL1       -0.1447
     31 C          63.8741   91.0826   15.9471 C.ar    1  UNL1        0.1446
     32 C          64.9850   91.2706   14.9568 C.ar    1  UNL1        0.1446
     33 N          65.2856   89.9374   14.3387 N.ar    1  UNL1       -0.1447
@<TRIPOS>BOND
     1     9    10    1
     2    10    11   ar
     3    11    12   ar
     4    12    13   ar
     5    13     1    1
     6     1     2    2
     7     1     3   am
     8     3     4    1
     9     4     5    1
    10     5     6    1
    11     6     7    1
    12     7     8    1
    13     8    21    1
    14    21    22    1
    15    22    23   ar
    16    23    24   ar
    17    24    29    1
    18    29    30   ar
    19    30    31   ar
    20    31    32   ar
    21    32    33   ar
    22    24    25   ar
    23    25    26   ar
    24    26    27   ar
    25    27    28    1
    26    13    14   ar
    27    14    16    1
    28    16    17   ar
    29    17    18   ar
    30    18    19   ar
    31    19    20   ar
    32    14    15   ar
    33    15    10   ar
    34     8     3    1
    35    27    22   ar
    36    20    16   ar
    37    33    29   ar
@<TRIPOS>MOLECULE
*****
 33 37 0 0 0
SMALL
GASTEIGER

@<TRIPOS>ATOM
      1 C          63.9833   85.2478   14.2284 C.2     1  UNL1        0.2506
      2 O          64.9909   85.9302   13.3514 O.2     1  UNL1       -0.2699
      3 N          63.3883   85.9780   15.3957 N.am    1  UNL1       -0.2723
      4 C          62.3807   85.2957   16.2727 C.3     1  UNL1        0.1257
      5 C          61.7857   86.0259   17.4400 C.3     1  UNL1        0.1637
      6 O          62.1983   87.4385   17.7304 O.3     1  UNL1       -0.3502
      7 C          63.2059   88.1209   16.8535 C.3     1  UNL1        0.1622
      8 C          63.8009   87.3906   15.6861 C.3     1  UNL1        0.1096
      9 C          62.3330   79.5974   13.0668 C.3     1  UNL1        0.0311
     10 C          62.7456   81.0100   13.3572 C.ar    1  UNL1       -0.0203
     11 C          63.5094   81.3260   14.6088 C.ar    1  UNL1       -0.0040
     12 C          63.9220   82.7386   14.8992 C.ar    1  UNL1        0.0058
     13 C          63.5708   83.8352   13.9380 C.ar    1  UNL1        0.0729
     14 C          62.8069   83.5192   12.6863 C.ar    1  UNL1        0.1069
     15 C          62.3944   82.1066   12.3959 C.ar    1  UNL1        0.0168
     16 N          62.4557   84.6158   11.7250 N.ar    1  UNL1       -0.1477
     17 N          62.9405   84.7374   10.3107 N.ar    1  UNL1       -0.1447
     18 C          62.3424   85.9800    9.7208 C.ar    1  UNL1        0.1446
     19 C          61.4879   86.6265   10.7705 C.ar    1  UNL1        0.1446
     20 N          61.5579   85.7834   12.0091 N.ar    1  UNL1       -0.1447
     21 C          64.8085   88.0730   14.8091 C.3     1  UNL1        0.0484
     22 C          64.3881   89.2145   13.9315 C.ar    1  UNL1       -0.0228
     23 C          63.2691   89.0328   12.9493 C.ar    1  UNL1        0.0164
     24 C          62.8487   90.1744   12.0717 C.ar    1  UNL1        0.1026
     25 C          63.5473   91.4976   12.1762 C.ar    1  UNL1        0.0206
     26 C          64.6664   91.6793   13.1584 C.ar    1  UNL1       -0.0030
     27 C          65.0867   90.5378   14.0360 C.ar    1  UNL1       -0.0256
     28 C          66.2059   90.7195   15.0182 C.3     1  UNL1        0.0307
     29 N          61.7296   89.9926   11.0895 N.ar    1  UNL1       -0.1478
     30 N          60.2646   89.9947   11.4118 N.ar    1  UNL1       -0.1447
     31 C          59.5086   89.7803   10.1341 C.ar    1  UNL1        0.1446
     32 C          60.5064   89.6456    9.0222 C.ar    1  UNL1        0.1446
     33 N          61.8790   89.7768    9.6127 N.ar    1  UNL1       -0.1447
@<TRIPOS>BOND
     1     9    10    1
     2    10    11   ar
     3    11    12   ar
     4    12    13   ar
     5    13     1    1
     6     1     2    2
     7     1     3   am
     8     3     4    1
     9     4     5    1
    10     5     6    1
    11     6     7    1
    12     7     8    1
    13     8    21    1
    14    21    22    1
    15    22    23   ar
    16    23    24   ar
    17    24    29    1
    18    29    30   ar
    19    30    31   ar
    20    31    32   ar
    21    32    33   ar
    22    24    25   ar
    23    25    26   ar
    24    26    27   ar
    25    27    28    1
    26    13    14   ar
    27    14    16    1
    28    16    17   ar
    29    17    18   ar
    30    18    19   ar
    31    19    20   ar
    32    14    15   ar
    33    15    10   ar
    34     8     3    1
    35    27    22   ar
    36    20    16   ar
    37    33    29   ar
@<TRIPOS>MOLECULE
*****
 33 37 0 0 0
SMALL
GASTEIGER

@<TRIPOS>ATOM
      1 C          63.4845   87.7041   13.3118 C.2     1  UNL1        0.2506
      2 O          63.5696   88.8120   12.3041 O.2     1  UNL1       -0.2699
      3 N          63.3951   88.0257   14.7741 N.am    1  UNL1       -0.2723
      4 C          63.3100   86.9179   15.7819 C.3     1  UNL1        0.1257
      5 C          63.2206   87.2395   17.2443 C.3     1  UNL1        0.1637
      6 O          63.2164   88.6689   17.6990 O.3     1  UNL1       -0.3502
      7 C          63.3015   89.7767   16.6913 C.3     1  UNL1        0.1622
      8 C          63.3909   89.4551   15.2288 C.3     1  UNL1        0.1096
      9 C          63.5015   81.9865   11.4930 C.3     1  UNL1        0.0311
     10 C          63.4973   83.4159   11.9477 C.ar    1  UNL1       -0.0203
     11 C          64.3428   83.8345   13.1137 C.ar    1  UNL1       -0.0040
     12 C          64.3386   85.2639   13.5684 C.ar    1  UNL1        0.0058
     13 C          63.4887   86.2747   12.8571 C.ar    1  UNL1        0.0729
     14 C          62.6432   85.8561   11.6911 C.ar    1  UNL1        0.1069
     15 C          62.6474   84.4267   11.2364 C.ar    1  UNL1        0.0168
     16 N          61.7933   86.8669   10.9796 N.ar    1  UNL1       -0.1477
     17 N          62.0503   87.4297    9.6132 N.ar    1  UNL1       -0.1447
     18 C          60.9531   88.4029    9.2988 C.ar    1  UNL1        0.1446
     19 C          60.0179   88.4416   10.4710 C.ar    1  UNL1        0.1446
     20 N          60.5372   87.4923   11.5097 N.ar    1  UNL1       -0.1447
     21 C          63.4760   90.5630   14.2212 C.3     1  UNL1        0.0484
     22 C          64.7104   91.4114   14.1418 C.ar    1  UNL1       -0.0228
     23 C          65.3902   91.6248   12.8219 C.ar    1  UNL1        0.0164
     24 C          66.6246   92.4733   12.7425 C.ar    1  UNL1        0.1026
     25 C          67.1793   93.1083   13.9830 C.ar    1  UNL1        0.0206
     26 C          66.4995   92.8950   15.3030 C.ar    1  UNL1       -0.0030
     27 C          65.2650   92.0465   15.3823 C.ar    1  UNL1       -0.0256
     28 C          64.5852   91.8331   16.7024 C.3     1  UNL1        0.0307
     29 N          67.3044   92.6866   11.4224 N.ar    1  UNL1       -0.1478
     30 N          68.4151   91.8515   10.8575 N.ar    1  UNL1       -0.1447
     31 C          68.7900   92.4213    9.5216 C.ar    1  UNL1        0.1446
     32 C          67.9111   93.6086    9.2608 C.ar    1  UNL1        0.1446
     33 N          66.9930   93.7725   10.4356 N.ar    1  UNL1       -0.1447
@<TRIPOS>BOND
     1     9    10    1
     2    10    11   ar
     3    11    12   ar
     4    12    13   ar
     5    13     1    1
     6     1     2    2
     7     1     3   am
     8     3     4    1
     9     4     5    1
    10     5     6    1
    11     6     7    1
    12     7     8    1
    13     8    21    1
    14    21    22    1
    15    22    23   ar
    16    23    24   ar
    17    24    29    1
    18    29    30   ar
    19    30    31   ar
    20    31    32   ar
    21    32    33   ar
    22    24    25   ar
    23    25    26   ar
    24    26    27   ar
    25    27    28    1
    26    13    14   ar
    27    14    16    1
    28    16    17   ar
    29    17    18   ar
    30    18    19   ar
    31    19    20   ar
    32    14    15   ar
    33    15    10   ar
    34     8     3    1
    35    27    22   ar
    36    20    16   ar
    37    33    29   ar
@<TRIPOS>MOLECULE
*****
 33 37 0 0 0
SMALL
GASTEIGER

@<TRIPOS>ATOM
      1 C          62.7415   88.9750   11.6419 C.2     1  UNL1        0.2506
      2 O          62.9626   87.8252   12.5795 O.2     1  UNL1       -0.2699
      3 N          61.6904   88.8820   10.5758 N.am    1  UNL1       -0.2723
      4 C          61.4694   90.0318    9.6382 C.3     1  UNL1        0.1257
      5 C          60.4183   89.9388    8.5721 C.3     1  UNL1        0.1637
      6 O          59.5882   88.6960    8.4437 O.3     1  UNL1       -0.3502
      7 C          59.8092   87.5463    9.3813 C.3     1  UNL1        0.1622
      8 C          60.8604   87.6392   10.4474 C.3     1  UNL1        0.1096
      9 C          66.0618   93.9461   12.1557 C.3     1  UNL1        0.0311
     10 C          65.2317   92.7033   12.0272 C.ar    1  UNL1       -0.0203
     11 C          64.7003   92.2916   10.6863 C.ar    1  UNL1       -0.0040
     12 C          63.8702   91.0489   10.5579 C.ar    1  UNL1        0.0058
     13 C          63.5716   90.2178   11.7703 C.ar    1  UNL1        0.0729
     14 C          64.1030   90.6295   13.1112 C.ar    1  UNL1        0.1069
     15 C          64.9331   91.8723   13.2397 C.ar    1  UNL1        0.0168
     16 N          63.8044   89.7984   14.3237 N.ar    1  UNL1       -0.1477
     17 N          64.5049   88.5323   14.7192 N.ar    1  UNL1       -0.1447
     18 C          63.8864   88.0389   15.9935 C.ar    1  UNL1        0.1446
     19 C          62.8035   89.0000   16.3856 C.ar    1  UNL1        0.1446
     20 N          62.7529   90.0874   15.3536 N.ar    1  UNL1       -0.1447
     21 C          61.0814   86.4895   11.3850 C.3     1  UNL1        0.0484
     22 C          61.9662   85.3488   10.9775 C.ar    1  UNL1       -0.0228
     23 C          62.1223   84.1611   11.8802 C.ar    1  UNL1        0.0164
     24 C          63.0071   83.0205   11.4727 C.ar    1  UNL1        0.1026
     25 C          63.7359   83.0676   10.1626 C.ar    1  UNL1        0.0206
     26 C          63.5799   84.2553    9.2599 C.ar    1  UNL1       -0.0030
     27 C          62.6951   85.3959    9.6673 C.ar    1  UNL1       -0.0256
     28 C          62.5390   86.5837    8.7646 C.3     1  UNL1        0.0307
     29 N          63.1631   81.8327   12.3755 N.ar    1  UNL1       -0.1478
     30 N          64.0677   81.7451   13.5689 N.ar    1  UNL1       -0.1447
     31 C          63.9056   80.3823   14.1743 C.ar    1  UNL1        0.1446
     32 C          62.9009   79.6277   13.3551 C.ar    1  UNL1        0.1446
     33 N          62.4420   80.5241   12.2434 N.ar    1  UNL1       -0.1447
@<TRIPOS>BOND
     1     9    10    1
     2    10    11   ar
     3    11    12   ar
     4    12    13   ar
     5    13     1    1
     6     1     2    2
     7     1     3   am
     8     3     4    1
     9     4     5    1
    10     5     6    1
    11     6     7    1
    12     7     8    1
    13     8    21    1
    14    21    22    1
    15    22    23   ar
    16    23    24   ar
    17    24    29    1
    18    29    30   ar
    19    30    31   ar
    20    31    32   ar
    21    32    33   ar
    22    24    25   ar
    23    25    26   ar
    24    26    27   ar
    25    27    28    1
    26    13    14   ar
    27    14    16    1
    28    16    17   ar
    29    17    18   ar
    30    18    19   ar
    31    19    20   ar
    32    14    15   ar
    33    15    10   ar
    34     8     3    1
    35    27    22   ar
    36    20    16   ar
    37    33    29   ar
@<TRIPOS>MOLECULE
*****
 33 37 0 0 0
SMALL
GASTEIGER

@<TRIPOS>ATOM
      1 C          62.8832   89.5305   10.6336 C.2     1  UNL1        0.2506
      2 O          63.4168   88.5947    9.5898 O.2     1  UNL1       -0.2699
      3 N          61.5264   89.2955   11.2283 N.am    1  UNL1       -0.2723
      4 C          60.9927   90.2313   12.2721 C.3     1  UNL1        0.1257
      5 C          59.6358   89.9964   12.8668 C.3     1  UNL1        0.1637
      6 O          58.8125   88.8257   12.4176 O.3     1  UNL1       -0.3502
      7 C          59.3461   87.8900   11.3738 C.3     1  UNL1        0.1622
      8 C          60.7031   88.1249   10.7791 C.3     1  UNL1        0.1096
      9 C          66.1763   94.2132   12.4302 C.3     1  UNL1        0.0311
     10 C          65.3530   93.0425   11.9811 C.ar    1  UNL1       -0.0203
     11 C          64.7829   93.0146   10.5939 C.ar    1  UNL1       -0.0040
     12 C          63.9597   91.8440   10.1448 C.ar    1  UNL1        0.0058
     13 C          63.7065   90.7011   11.0828 C.ar    1  UNL1        0.0729
     14 C          64.2766   90.7290   12.4699 C.ar    1  UNL1        0.1069
     15 C          65.0999   91.8997   12.9190 C.ar    1  UNL1        0.0168
     16 N          64.0234   89.5862   13.4079 N.ar    1  UNL1       -0.1477
     17 N          63.8190   89.6909   14.8903 N.ar    1  UNL1       -0.1447
     18 C          63.5995   88.3075   15.4269 C.ar    1  UNL1        0.1446
     19 C          63.6683   87.3477   14.2761 C.ar    1  UNL1        0.1446
     20 N          63.9303   88.1380   13.0284 N.ar    1  UNL1       -0.1447
     21 C          61.2367   87.1891    9.7353 C.3     1  UNL1        0.0484
     22 C          62.0295   85.9831   10.1440 C.ar    1  UNL1       -0.0228
     23 C          62.1736   85.6372   11.5964 C.ar    1  UNL1        0.0164
     24 C          62.9664   84.4311   12.0051 C.ar    1  UNL1        0.1026
     25 C          63.6150   83.5710   10.9614 C.ar    1  UNL1        0.0206
     26 C          63.4709   83.9169    9.5089 C.ar    1  UNL1       -0.0030
     27 C          62.6781   85.1229    9.1003 C.ar    1  UNL1       -0.0256
     28 C          62.5340   85.4688    7.6478 C.3     1  UNL1        0.0307
     29 N          63.1105   84.0853   13.4576 N.ar    1  UNL1       -0.1478
     30 N          62.0884   84.3301   14.5278 N.ar    1  UNL1       -0.1447
     31 C          62.6481   83.8300   15.8265 C.ar    1  UNL1        0.1446
     32 C          64.0162   83.2761   15.5589 C.ar    1  UNL1        0.1446
     33 N          64.3019   83.4338   14.0948 N.ar    1  UNL1       -0.1447
@<TRIPOS>BOND
     1     9    10    1
     2    10    11   ar
     3    11    12   ar
     4    12    13   ar
     5    13     1    1
     6     1     2    2
     7     1     3   am
     8     3     4    1
     9     4     5    1
    10     5     6    1
    11     6     7    1
    12     7     8    1
    13     8    21    1
    14    21    22    1
    15    22    23   ar
    16    23    24   ar
    17    24    29    1
    18    29    30   ar
    19    30    31   ar
    20    31    32   ar
    21    32    33   ar
    22    24    25   ar
    23    25    26   ar
    24    26    27   ar
    25    27    28    1
    26    13    14   ar
    27    14    16    1
    28    16    17   ar
    29    17    18   ar
    30    18    19   ar
    31    19    20   ar
    32    14    15   ar
    33    15    10   ar
    34     8     3    1
    35    27    22   ar
    36    20    16   ar
    37    33    29   ar
