@<TRIPOS>MOLECULE
*****
 31 35 0 0 0
SMALL
GASTEIGER

@<TRIPOS>ATOM
      1 C          62.6146   84.2119   12.0521 C.ar    1  UNL1        0.1388
      2 C          63.5387   84.7186   13.1196 C.ar    1  UNL1        0.0384
      3 C          63.7797   86.1920   13.2656 C.ar    1  UNL1        0.0221
      4 C          63.0967   87.1585   12.3440 C.ar    1  UNL1        0.0827
      5 C          62.1727   86.6518   11.2766 C.ar    1  UNL1        0.0217
      6 C          61.9317   85.1785   11.1307 C.ar    1  UNL1        0.0384
      7 C          61.6444   87.8350   10.5208 C.ar    1  UNL1        0.0163
      8 C          62.2420   89.0729   11.1212 C.ar    1  UNL1        0.0996
      9 N          63.1395   88.6548   12.2480 N.ar    1  UNL1       -0.2077
     10 C          60.6868   87.7884    9.3673 C.2     1  UNL1       -0.0222
     11 C          60.2428   89.0612    8.7093 C.2     1  UNL1       -0.0132
     12 C          59.2851   89.0146    7.5557 C.3     1  UNL1        0.0950
     13 N          58.7715   87.6952    7.0601 N.3     1  UNL1       -0.2935
     14 C          59.2155   86.4225    7.7181 C.3     1  UNL1        0.0735
     15 C          60.1731   86.4691    8.8717 C.3     1  UNL1        0.0432
     16 H          59.0361   87.6265    6.0775 H       1  UNL1        0.1236
     17 S          63.9395   89.5720   13.1248 S.O2    1  UNL1        0.0860
     18 O          63.9296   90.6130   12.0449 O.2     1  UNL1       -0.1476
     19 O          63.9493   88.5310   14.2047 O.2     1  UNL1       -0.1476
     20 C          64.7394   90.4893   14.0017 C.ar    1  UNL1        0.1292
     21 C          64.1547   90.9982   15.2858 C.ar    1  UNL1        0.0205
     22 C          64.9545   91.9154   16.1626 C.ar    1  UNL1        0.0029
     23 C          66.3393   92.3237   15.7553 C.ar    1  UNL1        0.0178
     24 C          67.1392   93.2409   16.6321 C.ar    1  UNL1        0.0031
     25 C          68.5239   93.6492   16.2248 C.ar    1  UNL1        0.0207
     26 C          69.1086   93.1403   14.9407 C.ar    1  UNL1        0.0988
     27 N          68.3087   92.2231   14.0639 N.ar    1  UNL1       -0.2438
     28 C          66.9241   91.8148   14.4712 C.ar    1  UNL1        0.0827
     29 C          66.1241   90.8975   13.5943 C.ar    1  UNL1        0.0395
     30 C          62.3584   81.8573   13.1199 C.3     1  UNL1        0.2525
     31 O          62.3736   82.7386   11.9062 O.3     1  UNL1       -0.4714
@<TRIPOS>BOND
     1    30    31    1
     2    31     1    1
     3     1     2   ar
     4     2     3   ar
     5     3     4   ar
     6     4     5   ar
     7     5     6   ar
     8     5     7   ar
     9     7    10    1
    10    10    11    2
    11    11    12    1
    12    12    13    1
    13    13    14    1
    14    14    15    1
    15     7     8   ar
    16     8     9   ar
    17     9    17    1
    18    17    18    2
    19    17    19    2
    20    17    20    1
    21    20    21   ar
    22    21    22   ar
    23    22    23   ar
    24    23    24   ar
    25    24    25   ar
    26    25    26   ar
    27    26    27   ar
    28    27    28   ar
    29    28    29   ar
    30     6     1   ar
    31    15    10    1
    32    29    20   ar
    33     9     4   ar
    34    28    23   ar
    35    13    16    1
@<TRIPOS>MOLECULE
*****
 31 35 0 0 0
SMALL
GASTEIGER

@<TRIPOS>ATOM
      1 C          60.9670   86.3583    9.2823 C.ar    1  UNL1        0.1388
      2 C          61.3168   87.7848    9.5872 C.ar    1  UNL1        0.0384
      3 C          62.1189   88.1152   10.8111 C.ar    1  UNL1        0.0221
      4 C          62.5711   87.0191   11.7298 C.ar    1  UNL1        0.0827
      5 C          62.2213   85.5927   11.4249 C.ar    1  UNL1        0.0217
      6 C          61.4193   85.2624   10.2011 C.ar    1  UNL1        0.0384
      7 C          62.8020   84.7315   12.5071 C.ar    1  UNL1        0.0163
      8 C          63.5106   85.6256   13.4809 C.ar    1  UNL1        0.0996
      9 N          63.3679   87.0395   13.0005 N.ar    1  UNL1       -0.2077
     10 C          62.6931   83.2383   12.5993 C.2     1  UNL1       -0.0222
     11 C          63.1064   82.3831   11.4384 C.2     1  UNL1       -0.0132
     12 C          62.9975   80.8899   11.5306 C.3     1  UNL1        0.0950
     13 N          62.4753   80.2519   12.7837 N.3     1  UNL1       -0.2935
     14 C          62.0620   81.1071   13.9446 C.3     1  UNL1        0.0735
     15 C          62.1709   82.6003   13.8524 C.3     1  UNL1        0.0432
     16 H          63.2072   79.6280   13.1235 H       1  UNL1        0.1236
     17 S          63.9243   88.2595   13.6728 S.O2    1  UNL1        0.0860
     18 O          64.2481   87.4421   14.8881 O.2     1  UNL1       -0.1476
     19 O          63.6006   89.0768   12.4575 O.2     1  UNL1       -0.1476
     20 C          64.4808   89.4795   14.3451 C.ar    1  UNL1        0.1292
     21 C          63.6800   90.1867   15.3980 C.ar    1  UNL1        0.0205
     22 C          64.2364   91.4066   16.0703 C.ar    1  UNL1        0.0029
     23 C          65.5937   91.9195   15.6898 C.ar    1  UNL1        0.0178
     24 C          66.1501   93.1394   16.3621 C.ar    1  UNL1        0.0031
     25 C          67.5074   93.6522   15.9816 C.ar    1  UNL1        0.0207
     26 C          68.3082   92.9450   14.9288 C.ar    1  UNL1        0.0988
     27 N          67.7518   91.7250   14.2564 N.ar    1  UNL1       -0.2438
     28 C          66.3946   91.2123   14.6369 C.ar    1  UNL1        0.0827
     29 C          65.8381   89.9923   13.9646 C.ar    1  UNL1        0.0395
     30 C          59.0157   86.9039    7.6561 C.3     1  UNL1        0.2525
     31 O          60.1649   86.0280    8.0585 O.3     1  UNL1       -0.4714
@<TRIPOS>BOND
     1    30    31    1
     2    31     1    1
     3     1     2   ar
     4     2     3   ar
     5     3     4   ar
     6     4     5   ar
     7     5     6   ar
     8     5     7   ar
     9     7    10    1
    10    10    11    2
    11    11    12    1
    12    12    13    1
    13    13    14    1
    14    14    15    1
    15     7     8   ar
    16     8     9   ar
    17     9    17    1
    18    17    18    2
    19    17    19    2
    20    17    20    1
    21    20    21   ar
    22    21    22   ar
    23    22    23   ar
    24    23    24   ar
    25    24    25   ar
    26    25    26   ar
    27    26    27   ar
    28    27    28   ar
    29    28    29   ar
    30     6     1   ar
    31    15    10    1
    32    29    20   ar
    33     9     4   ar
    34    28    23   ar
    35    13    16    1
@<TRIPOS>MOLECULE
*****
 31 35 0 0 0
SMALL
GASTEIGER

@<TRIPOS>ATOM
      1 C          62.5506   82.9188   12.7913 C.ar    1  UNL1        0.1388
      2 C          63.1257   83.6607   13.9614 C.ar    1  UNL1        0.0384
      3 C          63.3649   85.1386   13.8682 C.ar    1  UNL1        0.0221
      4 C          63.0290   85.8746   12.6050 C.ar    1  UNL1        0.0827
      5 C          62.4539   85.1327   11.4351 C.ar    1  UNL1        0.0217
      6 C          62.2147   83.6548   11.5283 C.ar    1  UNL1        0.0384
      7 C          62.2231   86.1190   10.3287 C.ar    1  UNL1        0.0163
      8 C          62.6555   87.4705   10.8150 C.ar    1  UNL1        0.0996
      9 N          63.1536   87.3194   12.2218 N.ar    1  UNL1       -0.2077
     10 C          61.6589   85.8084    8.9741 C.2     1  UNL1       -0.0222
     11 C          60.2640   86.2366    8.6264 C.2     1  UNL1       -0.0132
     12 C          59.6998   85.9260    7.2718 C.3     1  UNL1        0.0950
     13 N          60.5305   85.1872    6.2647 N.3     1  UNL1       -0.2935
     14 C          61.9254   84.7589    6.6124 C.3     1  UNL1        0.0735
     15 C          62.4896   85.0696    7.9670 C.3     1  UNL1        0.0432
     16 H          60.6031   85.7890    5.4444 H       1  UNL1        0.1236
     17 S          63.6833   88.4200   13.0926 S.O2    1  UNL1        0.0860
     18 O          63.1431   89.4388   12.1334 O.2     1  UNL1       -0.1476
     19 O          64.2235   87.4011   14.0517 O.2     1  UNL1       -0.1476
     20 C          64.2130   89.5206   13.9633 C.ar    1  UNL1        0.1292
     21 C          63.4596   89.9322   15.1933 C.ar    1  UNL1        0.0205
     22 C          63.9893   91.0328   16.0641 C.ar    1  UNL1        0.0029
     23 C          65.2724   91.7218   15.7048 C.ar    1  UNL1        0.0178
     24 C          65.8020   92.8223   16.5755 C.ar    1  UNL1        0.0031
     25 C          67.0850   93.5113   16.2162 C.ar    1  UNL1        0.0207
     26 C          67.8384   93.0997   14.9861 C.ar    1  UNL1        0.0988
     27 N          67.3088   91.9991   14.1154 N.ar    1  UNL1       -0.2438
     28 C          66.0257   91.3102   14.4747 C.ar    1  UNL1        0.0827
     29 C          65.4960   90.2095   13.6040 C.ar    1  UNL1        0.0395
     30 C          61.4163   80.8922   13.9558 C.3     1  UNL1        0.2525
     31 O          62.3114   81.4409   12.8845 O.3     1  UNL1       -0.4714
@<TRIPOS>BOND
     1    30    31    1
     2    31     1    1
     3     1     2   ar
     4     2     3   ar
     5     3     4   ar
     6     4     5   ar
     7     5     6   ar
     8     5     7   ar
     9     7    10    1
    10    10    11    2
    11    11    12    1
    12    12    13    1
    13    13    14    1
    14    14    15    1
    15     7     8   ar
    16     8     9   ar
    17     9    17    1
    18    17    18    2
    19    17    19    2
    20    17    20    1
    21    20    21   ar
    22    21    22   ar
    23    22    23   ar
    24    23    24   ar
    25    24    25   ar
    26    25    26   ar
    27    26    27   ar
    28    27    28   ar
    29    28    29   ar
    30     6     1   ar
    31    15    10    1
    32    29    20   ar
    33     9     4   ar
    34    28    23   ar
    35    13    16    1
@<TRIPOS>MOLECULE
*****
 31 35 0 0 0
SMALL
GASTEIGER

@<TRIPOS>ATOM
      1 C          60.5385   89.0032    9.1870 C.ar    1  UNL1        0.1388
      2 C          60.2149   87.5501    9.0028 C.ar    1  UNL1        0.0384
      3 C          60.8730   86.5192    9.8714 C.ar    1  UNL1        0.0221
      4 C          61.8545   86.9415   10.9241 C.ar    1  UNL1        0.0827
      5 C          62.1780   88.3945   11.1083 C.ar    1  UNL1        0.0217
      6 C          61.5200   89.4253   10.2397 C.ar    1  UNL1        0.0384
      7 C          63.1783   88.5094   12.2202 C.ar    1  UNL1        0.0163
      8 C          63.4729   87.1273   12.7232 C.ar    1  UNL1        0.0996
      9 N          62.6548   86.1583   11.9222 N.ar    1  UNL1       -0.2077
     10 C          63.7785   89.7828   12.7382 C.2     1  UNL1       -0.0222
     11 C          64.0359   90.9259   11.8017 C.2     1  UNL1       -0.0132
     12 C          64.6361   92.1992   12.3196 C.3     1  UNL1        0.0950
     13 N          64.9789   92.3295   13.7741 N.3     1  UNL1       -0.2935
     14 C          64.7216   91.1864   14.7106 C.3     1  UNL1        0.0735
     15 C          64.1214   89.9130   14.1927 C.3     1  UNL1        0.0432
     16 H          64.4518   93.1266   14.1306 H       1  UNL1        0.1236
     17 S          62.6396   84.6678   12.0898 S.O2    1  UNL1        0.0860
     18 O          63.1288   84.5044   10.6813 O.2     1  UNL1       -0.1476
     19 O          62.1504   84.8312   13.4983 O.2     1  UNL1       -0.1476
     20 C          62.6244   83.1772   12.2573 C.ar    1  UNL1        0.1292
     21 C          62.4695   82.5776   13.6235 C.ar    1  UNL1        0.0205
     22 C          62.4543   81.0871   13.7911 C.ar    1  UNL1        0.0029
     23 C          62.5940   80.1961   12.5925 C.ar    1  UNL1        0.0178
     24 C          62.5788   78.7056   12.7601 C.ar    1  UNL1        0.0031
     25 C          62.7186   77.8147   11.5615 C.ar    1  UNL1        0.0207
     26 C          62.8735   78.4143   10.1953 C.ar    1  UNL1        0.0988
     27 N          62.8887   79.9048   10.0277 N.ar    1  UNL1       -0.2438
     28 C          62.7489   80.7957   11.2263 C.ar    1  UNL1        0.0827
     29 C          62.7641   82.2863   11.0587 C.ar    1  UNL1        0.0395
     30 C          59.4205   89.6687    6.9382 C.3     1  UNL1        0.2525
     31 O          59.8805   90.0340    8.3184 O.3     1  UNL1       -0.4714
@<TRIPOS>BOND
     1    30    31    1
     2    31     1    1
     3     1     2   ar
     4     2     3   ar
     5     3     4   ar
     6     4     5   ar
     7     5     6   ar
     8     5     7   ar
     9     7    10    1
    10    10    11    2
    11    11    12    1
    12    12    13    1
    13    13    14    1
    14    14    15    1
    15     7     8   ar
    16     8     9   ar
    17     9    17    1
    18    17    18    2
    19    17    19    2
    20    17    20    1
    21    20    21   ar
    22    21    22   ar
    23    22    23   ar
    24    23    24   ar
    25    24    25   ar
    26    25    26   ar
    27    26    27   ar
    28    27    28   ar
    29    28    29   ar
    30     6     1   ar
    31    15    10    1
    32    29    20   ar
    33     9     4   ar
    34    28    23   ar
    35    13    16    1
@<TRIPOS>MOLECULE
*****
 31 35 0 0 0
SMALL
GASTEIGER

@<TRIPOS>ATOM
      1 C          62.9844   90.5405   10.5643 C.ar    1  UNL1        0.1388
      2 C          62.5490   89.1770   10.1153 C.ar    1  UNL1        0.0384
      3 C          62.7112   87.9990   11.0298 C.ar    1  UNL1        0.0221
      4 C          63.3087   88.1846   12.3932 C.ar    1  UNL1        0.0827
      5 C          63.7440   89.5481   12.8420 C.ar    1  UNL1        0.0217
      6 C          63.5818   90.7259   11.9275 C.ar    1  UNL1        0.0384
      7 C          64.2956   89.4245   14.2315 C.ar    1  UNL1        0.0163
      8 C          64.2012   87.9847   14.6413 C.ar    1  UNL1        0.0996
      9 N          63.5912   87.2184   13.5051 N.ar    1  UNL1       -0.2077
     10 C          64.8451   90.5442   15.0647 C.2     1  UNL1       -0.0222
     11 C          66.1894   91.1275   14.7444 C.2     1  UNL1       -0.0132
     12 C          66.7389   92.2472   15.5776 C.3     1  UNL1        0.0950
     13 N          65.9441   92.7835   16.7312 N.3     1  UNL1       -0.2935
     14 C          64.5999   92.2002   17.0516 C.3     1  UNL1        0.0735
     15 C          64.0504   91.0805   16.2183 C.3     1  UNL1        0.0432
     16 H          65.7988   93.7771   16.5521 H       1  UNL1        0.1236
     17 S          63.3128   85.7446   13.4846 S.O2    1  UNL1        0.0860
     18 O          62.2895   85.9530   12.4079 O.2     1  UNL1       -0.1476
     19 O          64.3361   85.5363   14.5613 O.2     1  UNL1       -0.1476
     20 C          63.0342   84.2708   13.4640 C.ar    1  UNL1        0.1292
     21 C          62.5329   83.5850   14.7003 C.ar    1  UNL1        0.0205
     22 C          62.2544   82.1112   14.6798 C.ar    1  UNL1        0.0029
     23 C          62.4772   81.3232   13.4229 C.ar    1  UNL1        0.0178
     24 C          62.1987   79.8495   13.4024 C.ar    1  UNL1        0.0031
     25 C          62.4215   79.0616   12.1457 C.ar    1  UNL1        0.0207
     26 C          62.9228   79.7474   10.9094 C.ar    1  UNL1        0.0988
     27 N          63.2014   81.2212   10.9299 N.ar    1  UNL1       -0.2438
     28 C          62.9785   82.0091   12.1867 C.ar    1  UNL1        0.0827
     29 C          63.2571   83.4829   12.2073 C.ar    1  UNL1        0.0395
     30 C          63.8076   92.8481    9.7000 C.3     1  UNL1        0.2525
     31 O          62.8222   91.7184    9.6498 O.3     1  UNL1       -0.4714
@<TRIPOS>BOND
     1    30    31    1
     2    31     1    1
     3     1     2   ar
     4     2     3   ar
     5     3     4   ar
     6     4     5   ar
     7     5     6   ar
     8     5     7   ar
     9     7    10    1
    10    10    11    2
    11    11    12    1
    12    12    13    1
    13    13    14    1
    14    14    15    1
    15     7     8   ar
    16     8     9   ar
    17     9    17    1
    18    17    18    2
    19    17    19    2
    20    17    20    1
    21    20    21   ar
    22    21    22   ar
    23    22    23   ar
    24    23    24   ar
    25    24    25   ar
    26    25    26   ar
    27    26    27   ar
    28    27    28   ar
    29    28    29   ar
    30     6     1   ar
    31    15    10    1
    32    29    20   ar
    33     9     4   ar
    34    28    23   ar
    35    13    16    1
@<TRIPOS>MOLECULE
*****
 31 35 0 0 0
SMALL
GASTEIGER

@<TRIPOS>ATOM
      1 C          60.6686   86.6617    9.3785 C.ar    1  UNL1        0.1388
      2 C          61.0393   88.1022    9.1841 C.ar    1  UNL1        0.0384
      3 C          61.9820   88.7698   10.1412 C.ar    1  UNL1        0.0221
      4 C          62.5539   87.9969   11.2926 C.ar    1  UNL1        0.0827
      5 C          62.1831   86.5565   11.4869 C.ar    1  UNL1        0.0217
      6 C          61.2405   85.8890   10.5299 C.ar    1  UNL1        0.0384
      7 C          62.9002   86.0535   12.7047 C.ar    1  UNL1        0.0163
      8 C          63.7140   87.1831   13.2629 C.ar    1  UNL1        0.0996
      9 N          63.5000   88.3842   12.3902 N.ar    1  UNL1       -0.2077
     10 C          62.8178   84.6648   13.2656 C.2     1  UNL1       -0.0222
     11 C          63.2081   83.4896   12.4191 C.2     1  UNL1       -0.0132
     12 C          63.1257   82.1009   12.9801 C.3     1  UNL1        0.0950
     13 N          62.6531   81.8874   14.3876 N.3     1  UNL1       -0.2935
     14 C          62.2628   83.0626   15.2341 C.3     1  UNL1        0.0735
     15 C          62.3452   84.4513   14.6731 C.3     1  UNL1        0.0432
     16 H          63.4050   81.4060   14.8808 H       1  UNL1        0.1236
     17 S          64.1227   89.7353   12.5815 S.O2    1  UNL1        0.0860
     18 O          64.6311   89.3104   13.9272 O.2     1  UNL1       -0.1476
     19 O          63.6144   90.1601   11.2358 O.2     1  UNL1       -0.1476
     20 C          64.7455   91.0864   12.7729 C.ar    1  UNL1        0.1292
     21 C          65.3028   91.4727   14.1109 C.ar    1  UNL1        0.0205
     22 C          65.9256   92.8238   14.3023 C.ar    1  UNL1        0.0029
     23 C          65.9911   93.7887   13.1556 C.ar    1  UNL1        0.0178
     24 C          66.6139   95.1398   13.3470 C.ar    1  UNL1        0.0031
     25 C          66.6794   96.1046   12.2004 C.ar    1  UNL1        0.0207
     26 C          66.1221   95.7184   10.8624 C.ar    1  UNL1        0.0988
     27 N          65.4993   94.3673   10.6710 N.ar    1  UNL1       -0.2438
     28 C          65.4338   93.4025   11.8176 C.ar    1  UNL1        0.0827
     29 C          64.8110   92.0513   11.6263 C.ar    1  UNL1        0.0395
     30 C          58.9386   86.8186    7.4466 C.3     1  UNL1        0.2525
     31 O          59.7260   85.9942    8.4215 O.3     1  UNL1       -0.4714
@<TRIPOS>BOND
     1    30    31    1
     2    31     1    1
     3     1     2   ar
     4     2     3   ar
     5     3     4   ar
     6     4     5   ar
     7     5     6   ar
     8     5     7   ar
     9     7    10    1
    10    10    11    2
    11    11    12    1
    12    12    13    1
    13    13    14    1
    14    14    15    1
    15     7     8   ar
    16     8     9   ar
    17     9    17    1
    18    17    18    2
    19    17    19    2
    20    17    20    1
    21    20    21   ar
    22    21    22   ar
    23    22    23   ar
    24    23    24   ar
    25    24    25   ar
    26    25    26   ar
    27    26    27   ar
    28    27    28   ar
    29    28    29   ar
    30     6     1   ar
    31    15    10    1
    32    29    20   ar
    33     9     4   ar
    34    28    23   ar
    35    13    16    1
