@<TRIPOS>MOLECULE
*****
 33 37 0 0 0
SMALL
GASTEIGER

@<TRIPOS>ATOM
      1 C          62.9354   86.2678   12.4098 C.2     1  UNL1        0.2506
      2 O          63.4062   87.1640   13.5166 O.2     1  UNL1       -0.2699
      3 N          62.1585   86.8393   11.2610 N.am    1  UNL1       -0.2723
      4 C          61.6877   85.9430   10.1542 C.3     1  UNL1        0.1257
      5 C          60.9108   86.5146    9.0054 C.3     1  UNL1        0.1637
      6 O          60.6047   87.9824    8.9634 O.3     1  UNL1       -0.3502
      7 C          61.0755   88.8787   10.0702 C.3     1  UNL1        0.1622
      8 C          61.8524   88.3072   11.2190 C.3     1  UNL1        0.1096
      9 C          64.0162   81.8240    9.9430 C.3     1  UNL1        0.0310
     10 C          63.7820   82.5780   11.2184 C.ar    1  UNL1       -0.0216
     11 C          63.8538   81.8643   12.5357 C.ar    1  UNL1       -0.0026
     12 C          63.6196   82.6184   13.8110 C.ar    1  UNL1        0.0207
     13 C          63.3135   84.0861   13.7691 C.ar    1  UNL1        0.1072
     14 C          63.2416   84.7999   12.4518 C.ar    1  UNL1        0.0726
     15 C          63.4758   84.0458   11.1764 C.ar    1  UNL1        0.0018
     16 N          63.0792   84.8402   15.0444 N.ar    1  UNL1       -0.1477
     17 N          64.1263   85.5373   15.8616 N.ar    1  UNL1       -0.1447
     18 C          63.4510   86.1575   17.0488 C.ar    1  UNL1        0.1446
     19 C          61.9866   85.8437   16.9653 C.ar    1  UNL1        0.1446
     20 N          61.7568   85.0296   15.7266 N.ar    1  UNL1       -0.1447
     21 C          62.3232   89.2034   12.3258 C.3     1  UNL1        0.0487
     22 C          63.3457   90.2651   12.0476 C.ar    1  UNL1       -0.0204
     23 C          63.3527   90.9712   10.7242 C.ar    1  UNL1       -0.0042
     24 C          64.3752   92.0328   10.4460 C.ar    1  UNL1       -0.0003
     25 C          65.3907   92.3884   11.4912 C.ar    1  UNL1       -0.0000
     26 C          65.3837   91.6822   12.8146 C.ar    1  UNL1       -0.0002
     27 C          64.3612   90.6206   13.0928 C.ar    1  UNL1       -0.0042
     28 C          66.3992   92.0377   13.8598 C.ar    1  UNL1        0.0031
     29 C          65.9521   92.4340   15.2357 C.ar    1  UNL1        0.0207
     30 C          66.9676   92.7895   16.2809 C.ar    1  UNL1        0.0989
     31 N          68.4302   92.7487   15.9501 N.ar    1  UNL1       -0.2423
     32 C          68.8772   92.3524   14.5742 C.ar    1  UNL1        0.0989
     33 C          67.8617   91.9969   13.5290 C.ar    1  UNL1        0.0207
@<TRIPOS>BOND
     1     9    10    1
     2    10    11   ar
     3    11    12   ar
     4    12    13   ar
     5    13    16    1
     6    16    17   ar
     7    17    18   ar
     8    18    19   ar
     9    19    20   ar
    10    13    14   ar
    11    14     1    1
    12     1     2    2
    13     1     3   am
    14     3     4    1
    15     4     5    1
    16     5     6    1
    17     6     7    1
    18     7     8    1
    19     8    21    1
    20    21    22    1
    21    22    23   ar
    22    23    24   ar
    23    24    25   ar
    24    25    26   ar
    25    26    28    1
    26    28    29   ar
    27    29    30   ar
    28    30    31   ar
    29    31    32   ar
    30    32    33   ar
    31    26    27   ar
    32    14    15   ar
    33    15    10   ar
    34    20    16   ar
    35     8     3    1
    36    27    22   ar
    37    33    28   ar
@<TRIPOS>MOLECULE
*****
 33 37 0 0 0
SMALL
GASTEIGER

@<TRIPOS>ATOM
      1 C          62.6414   88.5038   11.5828 C.2     1  UNL1        0.2506
      2 O          62.6078   90.0034   11.5862 O.2     1  UNL1       -0.2699
      3 N          63.3022   87.7659   12.7093 N.am    1  UNL1       -0.2723
      4 C          63.3358   86.2662   12.7059 C.3     1  UNL1        0.1257
      5 C          63.9966   85.5283   13.8324 C.3     1  UNL1        0.1637
      6 O          64.6237   86.2901   14.9622 O.3     1  UNL1       -0.3502
      7 C          64.5900   87.7897   14.9656 C.3     1  UNL1        0.1622
      8 C          63.9293   88.5276   13.8391 C.3     1  UNL1        0.1096
      9 C          63.0055   84.9772    7.7840 C.3     1  UNL1        0.0310
     10 C          62.1964   85.9788    8.5535 C.ar    1  UNL1       -0.0216
     11 C          60.7602   86.2186    8.1933 C.ar    1  UNL1       -0.0026
     12 C          59.9511   87.2202    8.9629 C.ar    1  UNL1        0.0207
     13 C          60.5781   87.9819   10.0927 C.ar    1  UNL1        0.1072
     14 C          62.0143   87.7420   10.4529 C.ar    1  UNL1        0.0726
     15 C          62.8234   86.7405    9.6834 C.ar    1  UNL1        0.0018
     16 N          59.7690   88.9834   10.8623 N.ar    1  UNL1       -0.1477
     17 N          59.0174   88.7200   12.1334 N.ar    1  UNL1       -0.1447
     18 C          58.3533   89.9980   12.5526 C.ar    1  UNL1        0.1446
     19 C          58.6944   91.0513   11.5405 C.ar    1  UNL1        0.1446
     20 N          59.5694   90.4242   10.4959 N.ar    1  UNL1       -0.1447
     21 C          63.8956   90.0272   13.8425 C.3     1  UNL1        0.0487
     22 C          65.1719   90.8063   13.7233 C.ar    1  UNL1       -0.0204
     23 C          66.1542   90.8144   14.8568 C.ar    1  UNL1       -0.0042
     24 C          67.4305   91.5935   14.7377 C.ar    1  UNL1       -0.0003
     25 C          67.7244   92.3645   13.4850 C.ar    1  UNL1       -0.0000
     26 C          66.7419   92.3564   12.3515 C.ar    1  UNL1       -0.0002
     27 C          65.4657   91.5773   12.4706 C.ar    1  UNL1       -0.0042
     28 C          67.0358   93.1274   11.0988 C.ar    1  UNL1        0.0031
     29 C          66.5197   94.5270   10.9411 C.ar    1  UNL1        0.0207
     30 C          66.8136   95.2980    9.6884 C.ar    1  UNL1        0.0989
     31 N          67.6235   94.6694    8.5934 N.ar    1  UNL1       -0.2423
     32 C          68.1395   93.2699    8.7512 C.ar    1  UNL1        0.0989
     33 C          67.8456   92.4988   10.0038 C.ar    1  UNL1        0.0207
@<TRIPOS>BOND
     1     9    10    1
     2    10    11   ar
     3    11    12   ar
     4    12    13   ar
     5    13    16    1
     6    16    17   ar
     7    17    18   ar
     8    18    19   ar
     9    19    20   ar
    10    13    14   ar
    11    14     1    1
    12     1     2    2
    13     1     3   am
    14     3     4    1
    15     4     5    1
    16     5     6    1
    17     6     7    1
    18     7     8    1
    19     8    21    1
    20    21    22    1
    21    22    23   ar
    22    23    24   ar
    23    24    25   ar
    24    25    26   ar
    25    26    28    1
    26    28    29   ar
    27    29    30   ar
    28    30    31   ar
    29    31    32   ar
    30    32    33   ar
    31    26    27   ar
    32    14    15   ar
    33    15    10   ar
    34    20    16   ar
    35     8     3    1
    36    27    22   ar
    37    33    28   ar
@<TRIPOS>MOLECULE
*****
 33 37 0 0 0
SMALL
GASTEIGER

@<TRIPOS>ATOM
      1 C          63.3281   86.9660   13.0888 C.2     1  UNL1        0.2506
      2 O          63.8009   87.6236   14.3513 O.2     1  UNL1       -0.2699
      3 N          62.7856   87.8001   11.9664 N.am    1  UNL1       -0.2723
      4 C          62.3127   87.1425   10.7039 C.3     1  UNL1        0.1257
      5 C          61.7702   87.9767    9.5814 C.3     1  UNL1        0.1637
      6 O          61.7005   89.4685    9.7216 O.3     1  UNL1       -0.3502
      7 C          62.1733   90.1261   10.9841 C.3     1  UNL1        0.1622
      8 C          62.7158   89.2920   12.1065 C.3     1  UNL1        0.1096
      9 C          63.9752   82.7503   10.1207 C.3     1  UNL1        0.0310
     10 C          63.7214   83.3663   11.4646 C.ar    1  UNL1       -0.0216
     11 C          63.5373   82.4906   12.6684 C.ar    1  UNL1       -0.0026
     12 C          63.2836   83.1066   14.0123 C.ar    1  UNL1        0.0207
     13 C          63.2138   84.5984   14.1525 C.ar    1  UNL1        0.1072
     14 C          63.3978   85.4741   12.9487 C.ar    1  UNL1        0.0726
     15 C          63.6516   84.8581   11.6048 C.ar    1  UNL1        0.0018
     16 N          62.9600   85.2144   15.4964 N.ar    1  UNL1       -0.1477
     17 N          61.6173   85.4203   16.1325 N.ar    1  UNL1       -0.1447
     18 C          61.8318   86.0658   17.4694 C.ar    1  UNL1        0.1446
     19 C          63.3072   86.2589   17.6595 C.ar    1  UNL1        0.1446
     20 N          64.0044   85.7327   16.4401 N.ar    1  UNL1       -0.1447
     21 C          63.1886   89.9496   13.3690 C.3     1  UNL1        0.0487
     22 C          64.4749   90.7213   13.3764 C.ar    1  UNL1       -0.0204
     23 C          65.3965   90.6315   14.5565 C.ar    1  UNL1       -0.0042
     24 C          66.6828   91.4032   14.5639 C.ar    1  UNL1       -0.0003
     25 C          67.0474   92.2646   13.3913 C.ar    1  UNL1       -0.0000
     26 C          66.1257   92.3544   12.2113 C.ar    1  UNL1       -0.0002
     27 C          64.8395   91.5828   12.2039 C.ar    1  UNL1       -0.0042
     28 C          66.4903   93.2159   11.0387 C.ar    1  UNL1        0.0031
     29 C          67.4883   92.7276   10.0309 C.ar    1  UNL1        0.0207
     30 C          67.8529   93.5891    8.8583 C.ar    1  UNL1        0.0989
     31 N          67.2195   94.9388    8.6936 N.ar    1  UNL1       -0.2423
     32 C          66.2215   95.4270    9.7014 C.ar    1  UNL1        0.0989
     33 C          65.8569   94.5656   10.8739 C.ar    1  UNL1        0.0207
@<TRIPOS>BOND
     1     9    10    1
     2    10    11   ar
     3    11    12   ar
     4    12    13   ar
     5    13    16    1
     6    16    17   ar
     7    17    18   ar
     8    18    19   ar
     9    19    20   ar
    10    13    14   ar
    11    14     1    1
    12     1     2    2
    13     1     3   am
    14     3     4    1
    15     4     5    1
    16     5     6    1
    17     6     7    1
    18     7     8    1
    19     8    21    1
    20    21    22    1
    21    22    23   ar
    22    23    24   ar
    23    24    25   ar
    24    25    26   ar
    25    26    28    1
    26    28    29   ar
    27    29    30   ar
    28    30    31   ar
    29    31    32   ar
    30    32    33   ar
    31    26    27   ar
    32    14    15   ar
    33    15    10   ar
    34    20    16   ar
    35     8     3    1
    36    27    22   ar
    37    33    28   ar
@<TRIPOS>MOLECULE
*****
 33 37 0 0 0
SMALL
GASTEIGER

@<TRIPOS>ATOM
      1 C          62.8063   87.3586   11.8667 C.2     1  UNL1        0.2506
      2 O          63.4812   87.5353   13.1946 O.2     1  UNL1       -0.2699
      3 N          62.0060   88.4817   11.2767 N.am    1  UNL1       -0.2723
      4 C          61.3311   88.3049    9.9488 C.3     1  UNL1        0.1257
      5 C          60.5308   89.4281    9.3589 C.3     1  UNL1        0.1637
      6 O          60.4054   90.7280   10.0968 O.3     1  UNL1       -0.3502
      7 C          61.0803   90.9047   11.4247 C.3     1  UNL1        0.1622
      8 C          61.8806   89.7816   12.0146 C.3     1  UNL1        0.1096
      9 C          62.8458   84.7060    7.3987 C.3     1  UNL1        0.0310
     10 C          62.9515   84.7324    8.8948 C.ar    1  UNL1       -0.0216
     11 C          63.1826   83.4589    9.6529 C.ar    1  UNL1       -0.0026
     12 C          63.2883   83.4853   11.1489 C.ar    1  UNL1        0.0207
     13 C          63.1629   84.7851   11.8869 C.ar    1  UNL1        0.1072
     14 C          62.9318   86.0586   11.1288 C.ar    1  UNL1        0.0726
     15 C          62.8261   86.0322    9.6327 C.ar    1  UNL1        0.0018
     16 N          63.2685   84.8115   13.3829 N.ar    1  UNL1       -0.1477
     17 N          64.5370   84.9259   14.1753 N.ar    1  UNL1       -0.1447
     18 C          64.1767   84.9132   15.6314 C.ar    1  UNL1        0.1446
     19 C          62.6856   84.7909   15.7389 C.ar    1  UNL1        0.1446
     20 N          62.1243   84.7281   14.3492 N.ar    1  UNL1       -0.1447
     21 C          62.5555   89.9584   13.3425 C.3     1  UNL1        0.0487
     22 C          63.8896   90.6395   13.4210 C.ar    1  UNL1       -0.0204
     23 C          64.7217   90.5179   14.6631 C.ar    1  UNL1       -0.0042
     24 C          66.0559   91.1990   14.7416 C.ar    1  UNL1       -0.0003
     25 C          66.5579   92.0017   13.5781 C.ar    1  UNL1       -0.0000
     26 C          65.7256   92.1233   12.3361 C.ar    1  UNL1       -0.0002
     27 C          64.3915   91.4422   12.2575 C.ar    1  UNL1       -0.0042
     28 C          66.2276   92.9260   11.1725 C.ar    1  UNL1        0.0031
     29 C          65.6267   94.2671   10.8717 C.ar    1  UNL1        0.0207
     30 C          66.1287   95.0698    9.7082 C.ar    1  UNL1        0.0989
     31 N          67.2314   94.5313    8.8455 N.ar    1  UNL1       -0.2423
     32 C          67.8322   93.1903    9.1464 C.ar    1  UNL1        0.0989
     33 C          67.3302   92.3876   10.3099 C.ar    1  UNL1        0.0207
@<TRIPOS>BOND
     1     9    10    1
     2    10    11   ar
     3    11    12   ar
     4    12    13   ar
     5    13    16    1
     6    16    17   ar
     7    17    18   ar
     8    18    19   ar
     9    19    20   ar
    10    13    14   ar
    11    14     1    1
    12     1     2    2
    13     1     3   am
    14     3     4    1
    15     4     5    1
    16     5     6    1
    17     6     7    1
    18     7     8    1
    19     8    21    1
    20    21    22    1
    21    22    23   ar
    22    23    24   ar
    23    24    25   ar
    24    25    26   ar
    25    26    28    1
    26    28    29   ar
    27    29    30   ar
    28    30    31   ar
    29    31    32   ar
    30    32    33   ar
    31    26    27   ar
    32    14    15   ar
    33    15    10   ar
    34    20    16   ar
    35     8     3    1
    36    27    22   ar
    37    33    28   ar
@<TRIPOS>MOLECULE
*****
 33 37 0 0 0
SMALL
GASTEIGER

@<TRIPOS>ATOM
      1 C          63.3838   87.8264   13.2257 C.2     1  UNL1        0.2506
      2 O          63.5639   88.9270   12.2225 O.2     1  UNL1       -0.2699
      3 N          63.3329   88.1473   14.6900 N.am    1  UNL1       -0.2723
      4 C          63.1529   87.0467   15.6932 C.3     1  UNL1        0.1257
      5 C          63.1019   87.3676   17.1576 C.3     1  UNL1        0.1637
      6 O          63.2310   88.7890   17.6188 O.3     1  UNL1       -0.3502
      7 C          63.4110   89.8896   16.6157 C.3     1  UNL1        0.1622
      8 C          63.4620   89.5688   15.1514 C.3     1  UNL1        0.1096
      9 C          64.6474   82.8087   13.7013 C.3     1  UNL1        0.0310
     10 C          63.8866   83.8961   13.0022 C.ar    1  UNL1       -0.0216
     11 C          62.9967   83.5620   11.8418 C.ar    1  UNL1       -0.0026
     12 C          62.2358   84.6494   11.1428 C.ar    1  UNL1        0.0207
     13 C          62.3649   86.0708   11.6040 C.ar    1  UNL1        0.1072
     14 C          63.2548   86.4049   12.7644 C.ar    1  UNL1        0.0726
     15 C          64.0156   85.3175   13.4634 C.ar    1  UNL1        0.0018
     16 N          61.6040   87.1582   10.9049 N.ar    1  UNL1       -0.1477
     17 N          61.9146   87.7203    9.5494 N.ar    1  UNL1       -0.1447
     18 C          60.9015   88.7839    9.2453 C.ar    1  UNL1        0.1446
     19 C          59.9648   88.8792   10.4130 C.ar    1  UNL1        0.1446
     20 N          60.3990   87.8745   11.4387 N.ar    1  UNL1       -0.1447
     21 C          63.6420   90.6694   14.1482 C.3     1  UNL1        0.0487
     22 C          65.0082   91.2316   13.8888 C.ar    1  UNL1       -0.0204
     23 C          66.0884   91.0830   14.9189 C.ar    1  UNL1       -0.0042
     24 C          67.4546   91.6452   14.6595 C.ar    1  UNL1       -0.0003
     25 C          67.7407   92.3561   13.3700 C.ar    1  UNL1       -0.0000
     26 C          66.6604   92.5047   12.3399 C.ar    1  UNL1       -0.0002
     27 C          65.2942   91.9425   12.5993 C.ar    1  UNL1       -0.0042
     28 C          66.9465   93.2156   11.0504 C.ar    1  UNL1        0.0031
     29 C          66.3691   94.5774   10.8006 C.ar    1  UNL1        0.0207
     30 C          66.6551   95.2883    9.5111 C.ar    1  UNL1        0.0989
     31 N          67.5185   94.6374    8.4713 N.ar    1  UNL1       -0.2423
     32 C          68.0959   93.2757    8.7212 C.ar    1  UNL1        0.0989
     33 C          67.8098   92.5648   10.0107 C.ar    1  UNL1        0.0207
@<TRIPOS>BOND
     1     9    10    1
     2    10    11   ar
     3    11    12   ar
     4    12    13   ar
     5    13    16    1
     6    16    17   ar
     7    17    18   ar
     8    18    19   ar
     9    19    20   ar
    10    13    14   ar
    11    14     1    1
    12     1     2    2
    13     1     3   am
    14     3     4    1
    15     4     5    1
    16     5     6    1
    17     6     7    1
    18     7     8    1
    19     8    21    1
    20    21    22    1
    21    22    23   ar
    22    23    24   ar
    23    24    25   ar
    24    25    26   ar
    25    26    28    1
    26    28    29   ar
    27    29    30   ar
    28    30    31   ar
    29    31    32   ar
    30    32    33   ar
    31    26    27   ar
    32    14    15   ar
    33    15    10   ar
    34    20    16   ar
    35     8     3    1
    36    27    22   ar
    37    33    28   ar
@<TRIPOS>MOLECULE
*****
 33 37 0 0 0
SMALL
GASTEIGER

@<TRIPOS>ATOM
      1 C          62.6502   87.3249   11.5929 C.2     1  UNL1        0.2506
      2 O          63.6010   87.8052   12.6490 O.2     1  UNL1       -0.2699
      3 N          61.4960   88.1868   11.1747 N.am    1  UNL1       -0.2723
      4 C          60.5452   87.7066   10.1187 C.3     1  UNL1        0.1257
      5 C          59.3910   88.5686    9.7005 C.3     1  UNL1        0.1637
      6 O          59.1876   89.9108   10.3385 O.3     1  UNL1       -0.3502
      7 C          60.1385   90.3911   11.3946 C.3     1  UNL1        0.1622
      8 C          61.2926   89.5292   11.8127 C.3     1  UNL1        0.1096
      9 C          62.8888   84.3557    7.3353 C.3     1  UNL1        0.0310
     10 C          62.9729   84.4981    8.8261 C.ar    1  UNL1       -0.0216
     11 C          63.2604   83.2982    9.6790 C.ar    1  UNL1       -0.0026
     12 C          63.3446   83.4405   11.1699 C.ar    1  UNL1        0.0207
     13 C          63.1412   84.7827   11.8078 C.ar    1  UNL1        0.1072
     14 C          62.8536   85.9826   10.9549 C.ar    1  UNL1        0.0726
     15 C          62.7695   85.8403    9.4641 C.ar    1  UNL1        0.0018
     16 N          63.2253   84.9250   13.2987 N.ar    1  UNL1       -0.1477
     17 N          64.4662   85.2216   14.0875 N.ar    1  UNL1       -0.1447
     18 C          64.0911   85.2756   15.5388 C.ar    1  UNL1        0.1446
     19 C          62.6184   85.0124   15.6471 C.ar    1  UNL1        0.1446
     20 N          62.0833   84.7957   14.2626 N.ar    1  UNL1       -0.1447
     21 C          62.2434   90.0094   12.8688 C.3     1  UNL1        0.0487
     22 C          63.4349   90.8360   12.4854 C.ar    1  UNL1       -0.0204
     23 C          63.5499   91.3862   11.0947 C.ar    1  UNL1       -0.0042
     24 C          64.7415   92.2128   10.7112 C.ar    1  UNL1       -0.0003
     25 C          65.8180   92.4892   11.7185 C.ar    1  UNL1       -0.0000
     26 C          65.7030   91.9390   13.1093 C.ar    1  UNL1       -0.0002
     27 C          64.5115   91.1124   13.4927 C.ar    1  UNL1       -0.0042
     28 C          66.7796   92.2154   14.1166 C.ar    1  UNL1        0.0031
     29 C          66.4144   92.6653   15.5002 C.ar    1  UNL1        0.0207
     30 C          67.4910   92.9417   16.5075 C.ar    1  UNL1        0.0989
     31 N          68.9327   92.7682   16.1312 N.ar    1  UNL1       -0.2423
     32 C          69.2977   92.3182   14.7476 C.ar    1  UNL1        0.0989
     33 C          68.2212   92.0418   13.7403 C.ar    1  UNL1        0.0207
@<TRIPOS>BOND
     1     9    10    1
     2    10    11   ar
     3    11    12   ar
     4    12    13   ar
     5    13    16    1
     6    16    17   ar
     7    17    18   ar
     8    18    19   ar
     9    19    20   ar
    10    13    14   ar
    11    14     1    1
    12     1     2    2
    13     1     3   am
    14     3     4    1
    15     4     5    1
    16     5     6    1
    17     6     7    1
    18     7     8    1
    19     8    21    1
    20    21    22    1
    21    22    23   ar
    22    23    24   ar
    23    24    25   ar
    24    25    26   ar
    25    26    28    1
    26    28    29   ar
    27    29    30   ar
    28    30    31   ar
    29    31    32   ar
    30    32    33   ar
    31    26    27   ar
    32    14    15   ar
    33    15    10   ar
    34    20    16   ar
    35     8     3    1
    36    27    22   ar
    37    33    28   ar
@<TRIPOS>MOLECULE
*****
 33 37 0 0 0
SMALL
GASTEIGER

@<TRIPOS>ATOM
      1 C          62.4020   84.6537   12.1910 C.2     1  UNL1        0.2506
      2 O          61.8707   85.7096   13.1145 O.2     1  UNL1       -0.2699
      3 N          62.6244   84.9681   10.7413 N.am    1  UNL1       -0.2723
      4 C          63.1557   83.9122    9.8179 C.3     1  UNL1        0.1257
      5 C          63.3781   84.2266    8.3681 C.3     1  UNL1        0.1637
      6 O          63.0691   85.5968    7.8418 O.3     1  UNL1       -0.3502
      7 C          62.5377   86.6527    8.7653 C.3     1  UNL1        0.1622
      8 C          62.3154   86.3383   10.2150 C.3     1  UNL1        0.1096
      9 C          62.7284   79.5198   11.4585 C.3     1  UNL1        0.0310
     10 C          62.8742   80.7165   12.3511 C.ar    1  UNL1       -0.0216
     11 C          63.3289   80.5430   13.7699 C.ar    1  UNL1       -0.0026
     12 C          63.4748   81.7397   14.6624 C.ar    1  UNL1        0.0207
     13 C          63.1658   83.1100   14.1362 C.ar    1  UNL1        0.1072
     14 C          62.7110   83.2835   12.7174 C.ar    1  UNL1        0.0726
     15 C          62.5652   82.0868   11.8248 C.ar    1  UNL1        0.0018
     16 N          63.3116   84.3067   15.0287 N.ar    1  UNL1       -0.1477
     17 N          64.4477   85.2860   15.0118 N.ar    1  UNL1       -0.1447
     18 C          64.1852   86.3187   16.0675 C.ar    1  UNL1        0.1446
     19 C          62.8868   85.9777   16.7368 C.ar    1  UNL1        0.1446
     20 N          62.3470   84.7342   16.0948 N.ar    1  UNL1       -0.1447
     21 C          61.7841   87.3942   11.1384 C.3     1  UNL1        0.0487
     22 C          62.3696   88.7750   11.1149 C.ar    1  UNL1       -0.0204
     23 C          62.2296   89.6281    9.8891 C.ar    1  UNL1       -0.0042
     24 C          62.8152   91.0090    9.8655 C.ar    1  UNL1       -0.0003
     25 C          63.5408   91.5365   11.0677 C.ar    1  UNL1       -0.0000
     26 C          63.6808   90.6833   12.2934 C.ar    1  UNL1       -0.0002
     27 C          63.0952   89.3025   12.3170 C.ar    1  UNL1       -0.0042
     28 C          64.4064   91.2109   13.4956 C.ar    1  UNL1        0.0031
     29 C          65.6781   91.9875   13.3230 C.ar    1  UNL1        0.0207
     30 C          66.4037   92.5151   14.5252 C.ar    1  UNL1        0.0989
     31 N          65.8576   92.2660   15.8999 N.ar    1  UNL1       -0.2423
     32 C          64.5860   91.4894   16.0724 C.ar    1  UNL1        0.0989
     33 C          63.8604   90.9619   14.8703 C.ar    1  UNL1        0.0207
@<TRIPOS>BOND
     1     9    10    1
     2    10    11   ar
     3    11    12   ar
     4    12    13   ar
     5    13    16    1
     6    16    17   ar
     7    17    18   ar
     8    18    19   ar
     9    19    20   ar
    10    13    14   ar
    11    14     1    1
    12     1     2    2
    13     1     3   am
    14     3     4    1
    15     4     5    1
    16     5     6    1
    17     6     7    1
    18     7     8    1
    19     8    21    1
    20    21    22    1
    21    22    23   ar
    22    23    24   ar
    23    24    25   ar
    24    25    26   ar
    25    26    28    1
    26    28    29   ar
    27    29    30   ar
    28    30    31   ar
    29    31    32   ar
    30    32    33   ar
    31    26    27   ar
    32    14    15   ar
    33    15    10   ar
    34    20    16   ar
    35     8     3    1
    36    27    22   ar
    37    33    28   ar
@<TRIPOS>MOLECULE
*****
 33 37 0 0 0
SMALL
GASTEIGER

@<TRIPOS>ATOM
      1 C          62.8387   89.0712   11.9155 C.2     1  UNL1        0.2506
      2 O          62.8766   87.8197   12.7415 O.2     1  UNL1       -0.2699
      3 N          61.8916   89.1769   10.7571 N.am    1  UNL1       -0.2723
      4 C          61.8537   90.4285    9.9312 C.3     1  UNL1        0.1257
      5 C          60.9066   90.5342    8.7727 C.3     1  UNL1        0.1637
      6 O          59.9975   89.3884    8.4403 O.3     1  UNL1       -0.3502
      7 C          60.0354   88.1368    9.2662 C.3     1  UNL1        0.1622
      8 C          60.9825   88.0311   10.4246 C.3     1  UNL1        0.1096
      9 C          65.4492   93.3171   10.4466 C.3     1  UNL1        0.0310
     10 C          65.0531   92.3400   11.5135 C.ar    1  UNL1       -0.0216
     11 C          65.5661   92.5087   12.9129 C.ar    1  UNL1       -0.0026
     12 C          65.1700   91.5316   13.9798 C.ar    1  UNL1        0.0207
     13 C          64.2609   90.3858   13.6474 C.ar    1  UNL1        0.1072
     14 C          63.7478   90.2171   12.2480 C.ar    1  UNL1        0.0726
     15 C          64.1440   91.1942   11.1811 C.ar    1  UNL1        0.0018
     16 N          63.8647   89.4087   14.7143 N.ar    1  UNL1       -0.1477
     17 N          64.3894   88.0120   14.8697 N.ar    1  UNL1       -0.1447
     18 C          63.7233   87.3968   16.0646 C.ar    1  UNL1        0.1446
     19 C          62.7870   88.4132   16.6478 C.ar    1  UNL1        0.1446
     20 N          62.8744   89.6566   15.8133 N.ar    1  UNL1       -0.1447
     21 C          61.0204   86.7795   11.2506 C.3     1  UNL1        0.0487
     22 C          61.8973   85.6348   10.8377 C.ar    1  UNL1       -0.0204
     23 C          62.5830   85.6584    9.5039 C.ar    1  UNL1       -0.0042
     24 C          63.4600   84.5136    9.0910 C.ar    1  UNL1       -0.0003
     25 C          63.6512   83.3452   10.0120 C.ar    1  UNL1       -0.0000
     26 C          62.9654   83.3216   11.3459 C.ar    1  UNL1       -0.0002
     27 C          62.0885   84.4664   11.7587 C.ar    1  UNL1       -0.0042
     28 C          63.1566   82.1532   12.2669 C.ar    1  UNL1        0.0031
     29 C          62.5596   80.8209   11.9222 C.ar    1  UNL1        0.0207
     30 C          62.7508   79.6525   12.8432 C.ar    1  UNL1        0.0989
     31 N          63.5390   79.8164   14.1089 N.ar    1  UNL1       -0.2423
     32 C          64.1360   81.1486   14.4536 C.ar    1  UNL1        0.0989
     33 C          63.9448   82.3170   13.5326 C.ar    1  UNL1        0.0207
@<TRIPOS>BOND
     1     9    10    1
     2    10    11   ar
     3    11    12   ar
     4    12    13   ar
     5    13    16    1
     6    16    17   ar
     7    17    18   ar
     8    18    19   ar
     9    19    20   ar
    10    13    14   ar
    11    14     1    1
    12     1     2    2
    13     1     3   am
    14     3     4    1
    15     4     5    1
    16     5     6    1
    17     6     7    1
    18     7     8    1
    19     8    21    1
    20    21    22    1
    21    22    23   ar
    22    23    24   ar
    23    24    25   ar
    24    25    26   ar
    25    26    28    1
    26    28    29   ar
    27    29    30   ar
    28    30    31   ar
    29    31    32   ar
    30    32    33   ar
    31    26    27   ar
    32    14    15   ar
    33    15    10   ar
    34    20    16   ar
    35     8     3    1
    36    27    22   ar
    37    33    28   ar
@<TRIPOS>MOLECULE
*****
 33 37 0 0 0
SMALL
GASTEIGER

@<TRIPOS>ATOM
      1 C          62.6047   88.2273   10.9052 C.2     1  UNL1        0.2506
      2 O          62.9522   89.6733   10.7094 O.2     1  UNL1       -0.2699
      3 N          63.0599   87.5071   12.1398 N.am    1  UNL1       -0.2723
      4 C          62.7125   86.0611   12.3356 C.3     1  UNL1        0.1257
      5 C          63.1677   85.3409   13.5702 C.3     1  UNL1        0.1637
      6 O          63.9703   86.0667   14.6089 O.3     1  UNL1       -0.3502
      7 C          64.3177   87.5127   14.4131 C.3     1  UNL1        0.1622
      8 C          63.8626   88.2329   13.1786 C.3     1  UNL1        0.1096
      9 C          62.3313   84.7791    7.0277 C.3     1  UNL1        0.0310
     10 C          61.6654   85.7774    7.9277 C.ar    1  UNL1       -0.0216
     11 C          60.1969   86.0498    7.7890 C.ar    1  UNL1       -0.0026
     12 C          59.5310   87.0481    8.6890 C.ar    1  UNL1        0.0207
     13 C          60.3336   87.7740    9.7277 C.ar    1  UNL1        0.1072
     14 C          61.8021   87.5015    9.8665 C.ar    1  UNL1        0.0726
     15 C          62.4680   86.5032    8.9665 C.ar    1  UNL1        0.0018
     16 N          59.6677   88.7722   10.6277 N.ar    1  UNL1       -0.1477
     17 N          59.5430   90.2449   10.3715 N.ar    1  UNL1       -0.1447
     18 C          58.8078   90.8560   11.5274 C.ar    1  UNL1        0.1446
     19 C          58.4781   89.7610   12.4980 C.ar    1  UNL1        0.1446
     20 N          59.0096   88.4732   11.9420 N.ar    1  UNL1       -0.1447
     21 C          64.2100   89.6789   12.9827 C.3     1  UNL1        0.0487
     22 C          64.6170   90.5182   14.1574 C.ar    1  UNL1       -0.0204
     23 C          63.6800   90.6916   15.3158 C.ar    1  UNL1       -0.0042
     24 C          64.0869   91.5309   16.4906 C.ar    1  UNL1       -0.0003
     25 C          65.4309   92.1969   16.5068 C.ar    1  UNL1       -0.0000
     26 C          66.3679   92.0235   15.3483 C.ar    1  UNL1       -0.0002
     27 C          65.9609   91.1842   14.1737 C.ar    1  UNL1       -0.0042
     28 C          67.7119   92.6895   15.3646 C.ar    1  UNL1        0.0031
     29 C          68.8466   92.1082   14.5741 C.ar    1  UNL1        0.0207
     30 C          70.1905   92.7741   14.5904 C.ar    1  UNL1        0.0989
     31 N          70.3998   94.0214   15.3971 N.ar    1  UNL1       -0.2423
     32 C          69.2652   94.6026   16.1875 C.ar    1  UNL1        0.0989
     33 C          67.9212   93.9366   16.1712 C.ar    1  UNL1        0.0207
@<TRIPOS>BOND
     1     9    10    1
     2    10    11   ar
     3    11    12   ar
     4    12    13   ar
     5    13    16    1
     6    16    17   ar
     7    17    18   ar
     8    18    19   ar
     9    19    20   ar
    10    13    14   ar
    11    14     1    1
    12     1     2    2
    13     1     3   am
    14     3     4    1
    15     4     5    1
    16     5     6    1
    17     6     7    1
    18     7     8    1
    19     8    21    1
    20    21    22    1
    21    22    23   ar
    22    23    24   ar
    23    24    25   ar
    24    25    26   ar
    25    26    28    1
    26    28    29   ar
    27    29    30   ar
    28    30    31   ar
    29    31    32   ar
    30    32    33   ar
    31    26    27   ar
    32    14    15   ar
    33    15    10   ar
    34    20    16   ar
    35     8     3    1
    36    27    22   ar
    37    33    28   ar
