@<TRIPOS>MOLECULE
*****
 29 32 0 0 0
SMALL
GASTEIGER

@<TRIPOS>ATOM
      1 C          60.5149   88.0780    9.0276 C.ar    1  UNL1        0.1096
      2 C          61.1276   86.7153    9.1614 C.ar    1  UNL1        0.0153
      3 C          62.0332   86.4105   10.3176 C.ar    1  UNL1        0.0709
      4 C          62.3264   87.4683   11.3400 C.ar    1  UNL1        0.0831
      5 N          61.7137   88.8309   11.2061 N.ar    1  UNL1       -0.2900
      6 C          60.8080   89.1358   10.0499 C.ar    1  UNL1        0.2655
      7 O          60.1954   90.4984    9.9160 O.2     1  UNL1       -0.2668
      8 C          58.8543   89.9772    5.9640 C.3     1  UNL1        0.1109
      9 N          59.7600   89.6723    7.1201 N.am    1  UNL1       -0.2990
     10 C          59.6092   88.3828    7.8714 C.2     1  UNL1        0.2505
     11 O          58.5526   87.3981    7.4664 O.2     1  UNL1       -0.2700
     12 H          60.4535   90.3187    7.3859 H       1  UNL1        0.1498
     13 C          62.6459   85.0479   10.4514 C.2     1  UNL1        0.2473
     14 O          63.4247   84.4605    9.3120 O.2     1  UNL1       -0.2701
     15 N          62.4796   84.2726   11.7248 N.am    1  UNL1       -0.3024
     16 H          61.9685   84.6581   12.4726 H       1  UNL1        0.1497
     17 C          63.0923   82.9099   11.8586 C.3     1  UNL1        0.0720
     18 C          64.1996   82.0263   12.3515 C.3     1  UNL1        0.0213
     19 C          63.0462   81.4335   11.5976 C.3     1  UNL1        0.0213
     20 C          62.0068   89.8887   12.2284 C.3     1  UNL1        0.1322
     21 C          63.1955   90.7876   12.0580 C.2     1  UNL1       -0.0123
     22 C          63.5655   91.2914   10.6944 C.2     1  UNL1       -0.0059
     23 C          64.7541   92.1903   10.5240 C.2     1  UNL1        0.0007
     24 C          65.5729   92.5854   11.7171 C.2     1  UNL1        0.0153
     25 C          65.2029   92.0816   13.0807 C.2     1  UNL1        0.0666
     26 N          65.8167   92.2997   14.4319 N.2     1  UNL1       -0.2478
     27 C          65.0074   91.5356   15.4374 C.2     1  UNL1        0.0946
     28 C          63.8934   90.8452   14.7076 C.2     1  UNL1        0.0042
     29 C          64.0143   91.1827   13.2511 C.3     1  UNL1        0.0837
@<TRIPOS>BOND
     1     8     9    1
     2     9    10   am
     3    10    11    2
     4    10     1    1
     5     1     2   ar
     6     2     3   ar
     7     3    13    1
     8    13    14    2
     9    13    15   am
    10    15    17    1
    11    17    18    1
    12    18    19    1
    13     3     4   ar
    14     4     5   ar
    15     5    20    1
    16    20    21    1
    17    21    22    2
    18    22    23    1
    19    23    24    2
    20    24    25    1
    21    25    26    2
    22    26    27    1
    23    27    28    2
    24    28    29    1
    25     5     6   ar
    26     6     7    2
    27     6     1   ar
    28    19    17    1
    29    29    21    1
    30    29    25    1
    31     9    12    1
    32    15    16    1
@<TRIPOS>MOLECULE
*****
 29 32 0 0 0
SMALL
GASTEIGER

@<TRIPOS>ATOM
      1 C          63.7004   90.4201   14.3629 C.ar    1  UNL1        0.1096
      2 C          62.9313   89.9024   13.1836 C.ar    1  UNL1        0.0153
      3 C          63.2000   90.4510   11.8137 C.ar    1  UNL1        0.0709
      4 C          64.2377   91.5172   11.6229 C.ar    1  UNL1        0.0831
      5 N          65.0067   92.0348   12.8022 N.ar    1  UNL1       -0.2900
      6 C          64.7381   91.4863   14.1722 C.ar    1  UNL1        0.2655
      7 O          65.5071   92.0038   15.3515 O.2     1  UNL1       -0.2668
      8 C          63.0539   87.8411   17.3093 C.3     1  UNL1        0.1109
      9 N          63.3226   88.3897   15.9393 N.am    1  UNL1       -0.2990
     10 C          63.4317   89.8714   15.7329 C.2     1  UNL1        0.2505
     11 O          63.2721   90.8045   16.8964 O.2     1  UNL1       -0.2700
     12 H          63.4273   87.7773   15.1756 H       1  UNL1        0.1498
     13 C          62.4310   89.9334   10.6344 C.2     1  UNL1        0.2473
     14 O          62.4321   90.6982    9.3440 O.2     1  UNL1       -0.2701
     15 N          61.6608   88.6510   10.7455 N.am    1  UNL1       -0.3024
     16 H          61.6601   88.1490   11.5924 H       1  UNL1        0.1497
     17 C          60.8918   88.1334    9.5661 C.3     1  UNL1        0.0720
     18 C          60.5267   87.0057    8.6469 C.3     1  UNL1        0.0213
     19 C          59.9249   88.3646    8.4428 C.3     1  UNL1        0.0213
     20 C          66.0444   93.1010   12.6115 C.3     1  UNL1        0.1322
     21 C          66.7717   93.2146   11.3045 C.2     1  UNL1       -0.0123
     22 C          67.6994   92.1208   10.8649 C.2     1  UNL1       -0.0059
     23 C          68.4266   92.2343    9.5581 C.2     1  UNL1        0.0007
     24 C          68.2263   93.4416    8.6906 C.2     1  UNL1        0.0153
     25 C          67.2987   94.5353    9.1301 C.2     1  UNL1        0.0666
     26 N          66.9041   95.8338    8.4913 N.2     1  UNL1       -0.2478
     27 C          65.9329   96.5229    9.4034 C.2     1  UNL1        0.0946
     28 C          65.7273   95.6502   10.6060 C.2     1  UNL1        0.0042
     29 C          66.5714   94.4218   10.4371 C.3     1  UNL1        0.0837
@<TRIPOS>BOND
     1     8     9    1
     2     9    10   am
     3    10    11    2
     4    10     1    1
     5     1     2   ar
     6     2     3   ar
     7     3    13    1
     8    13    14    2
     9    13    15   am
    10    15    17    1
    11    17    18    1
    12    18    19    1
    13     3     4   ar
    14     4     5   ar
    15     5    20    1
    16    20    21    1
    17    21    22    2
    18    22    23    1
    19    23    24    2
    20    24    25    1
    21    25    26    2
    22    26    27    1
    23    27    28    2
    24    28    29    1
    25     5     6   ar
    26     6     7    2
    27     6     1   ar
    28    19    17    1
    29    29    21    1
    30    29    25    1
    31     9    12    1
    32    15    16    1
@<TRIPOS>MOLECULE
*****
 29 32 0 0 0
SMALL
GASTEIGER

@<TRIPOS>ATOM
      1 C          63.0683   86.6098   12.4944 C.ar    1  UNL1        0.1096
      2 C          62.2877   86.6438   11.2139 C.ar    1  UNL1        0.0153
      3 C          61.9094   87.9594   10.6009 C.ar    1  UNL1        0.0709
      4 C          62.3116   89.2412   11.2683 C.ar    1  UNL1        0.0831
      5 N          63.0922   89.2071   12.5487 N.ar    1  UNL1       -0.2900
      6 C          63.4706   87.8914   13.1618 C.ar    1  UNL1        0.2655
      7 O          64.2512   87.8574   14.4422 O.2     1  UNL1       -0.2668
      8 C          63.7056   83.7793   15.2023 C.3     1  UNL1        0.1109
      9 N          63.3273   85.0951   14.5893 N.am    1  UNL1       -0.2990
     10 C          63.4467   85.2940   13.1074 C.2     1  UNL1        0.2505
     11 O          63.9444   84.1773   12.2384 O.2     1  UNL1       -0.2700
     12 H          63.0006   85.8280   15.1596 H       1  UNL1        0.1498
     13 C          61.1288   87.9935    9.3205 C.2     1  UNL1        0.2473
     14 O          60.9429   86.7375    8.5218 O.2     1  UNL1       -0.2701
     15 N          60.5340   89.2835    8.8388 N.am    1  UNL1       -0.3024
     16 H          60.6560   90.1079    9.3630 H       1  UNL1        0.1497
     17 C          59.7534   89.3175    7.5583 C.3     1  UNL1        0.0720
     18 C          59.4967   89.9206    6.2091 C.3     1  UNL1        0.0213
     19 C          58.6581   88.7735    6.6897 C.3     1  UNL1        0.0213
     20 C          63.4945   90.4888   13.2162 C.3     1  UNL1        0.1322
     21 C          64.5732   91.3407   12.6157 C.2     1  UNL1       -0.0123
     22 C          64.4211   91.8705   11.2206 C.2     1  UNL1       -0.0059
     23 C          65.4998   92.7223   10.6201 C.2     1  UNL1        0.0007
     24 C          66.7307   93.0446   11.4147 C.2     1  UNL1        0.0153
     25 C          66.8827   92.5148   12.8097 C.2     1  UNL1        0.0666
     26 N          67.9754   92.6641   13.8264 N.2     1  UNL1       -0.2478
     27 C          67.5720   91.9045   15.0553 C.2     1  UNL1        0.0946
     28 C          66.2300   91.2857   14.7981 C.2     1  UNL1        0.0042
     29 C          65.8040   91.6629   13.4102 C.3     1  UNL1        0.0837
@<TRIPOS>BOND
     1     8     9    1
     2     9    10   am
     3    10    11    2
     4    10     1    1
     5     1     2   ar
     6     2     3   ar
     7     3    13    1
     8    13    14    2
     9    13    15   am
    10    15    17    1
    11    17    18    1
    12    18    19    1
    13     3     4   ar
    14     4     5   ar
    15     5    20    1
    16    20    21    1
    17    21    22    2
    18    22    23    1
    19    23    24    2
    20    24    25    1
    21    25    26    2
    22    26    27    1
    23    27    28    2
    24    28    29    1
    25     5     6   ar
    26     6     7    2
    27     6     1   ar
    28    19    17    1
    29    29    21    1
    30    29    25    1
    31     9    12    1
    32    15    16    1
@<TRIPOS>MOLECULE
*****
 29 32 0 0 0
SMALL
GASTEIGER

@<TRIPOS>ATOM
      1 C          62.8867   82.9507   12.3730 C.ar    1  UNL1        0.1096
      2 C          62.3164   83.7583   11.2448 C.ar    1  UNL1        0.0153
      3 C          62.5475   85.2393   11.1908 C.ar    1  UNL1        0.0709
      4 C          63.3491   85.9130   12.2650 C.ar    1  UNL1        0.0831
      5 N          63.9194   85.1055   13.3931 N.ar    1  UNL1       -0.2900
      6 C          63.6882   83.6244   13.4472 C.ar    1  UNL1        0.2655
      7 O          64.2585   82.8169   14.5753 O.2     1  UNL1       -0.2668
      8 C          61.9091   79.3552   13.7394 C.3     1  UNL1        0.1109
      9 N          62.1403   80.8363   13.6854 N.am    1  UNL1       -0.2990
     10 C          62.6555   81.4696   12.4270 C.2     1  UNL1        0.2505
     11 O          62.9395   80.6218   11.2226 O.2     1  UNL1       -0.2700
     12 H          61.9539   81.3928   14.4759 H       1  UNL1        0.1498
     13 C          61.9772   86.0467   10.0627 C.2     1  UNL1        0.2473
     14 O          62.6487   86.0402    8.7214 O.2     1  UNL1       -0.2701
     15 N          60.7355   86.8608   10.2758 N.am    1  UNL1       -0.3024
     16 H          60.2948   86.8651   11.1562 H       1  UNL1        0.1497
     17 C          60.1652   87.6683    9.1476 C.3     1  UNL1        0.0720
     18 C          59.9659   88.9903    8.4675 C.3     1  UNL1        0.0213
     19 C          59.3768   87.7450    7.8738 C.3     1  UNL1        0.0213
     20 C          64.7209   85.7791   14.4673 C.3     1  UNL1        0.1322
     21 C          64.0240   86.5143   15.5736 C.2     1  UNL1       -0.0123
     22 C          63.4660   85.7573   16.7422 C.2     1  UNL1       -0.0059
     23 C          62.7692   86.4925   17.8484 C.2     1  UNL1        0.0007
     24 C          62.6302   87.9848   17.7861 C.2     1  UNL1        0.0153
     25 C          63.1881   88.7418   16.6175 C.2     1  UNL1        0.0666
     26 N          63.2028   90.2040   16.2835 N.2     1  UNL1       -0.2478
     27 C          63.9088   90.3726   14.9708 C.2     1  UNL1        0.0946
     28 C          64.3304   89.0145   14.4935 C.2     1  UNL1        0.0042
     29 C          63.8850   88.0066   15.5112 C.3     1  UNL1        0.0837
@<TRIPOS>BOND
     1     8     9    1
     2     9    10   am
     3    10    11    2
     4    10     1    1
     5     1     2   ar
     6     2     3   ar
     7     3    13    1
     8    13    14    2
     9    13    15   am
    10    15    17    1
    11    17    18    1
    12    18    19    1
    13     3     4   ar
    14     4     5   ar
    15     5    20    1
    16    20    21    1
    17    21    22    2
    18    22    23    1
    19    23    24    2
    20    24    25    1
    21    25    26    2
    22    26    27    1
    23    27    28    2
    24    28    29    1
    25     5     6   ar
    26     6     7    2
    27     6     1   ar
    28    19    17    1
    29    29    21    1
    30    29    25    1
    31     9    12    1
    32    15    16    1
@<TRIPOS>MOLECULE
*****
 29 32 0 0 0
SMALL
GASTEIGER

@<TRIPOS>ATOM
      1 C          63.4432   86.8377   13.2618 C.ar    1  UNL1        0.1096
      2 C          62.7457   86.7365   11.9376 C.ar    1  UNL1        0.0153
      3 C          62.3598   87.9819   11.1960 C.ar    1  UNL1        0.0709
      4 C          62.6715   89.3287   11.7786 C.ar    1  UNL1        0.0831
      5 N          63.3690   89.4298   13.1027 N.ar    1  UNL1       -0.2900
      6 C          63.7548   88.1843   13.8443 C.ar    1  UNL1        0.2655
      7 O          64.4523   88.2855   15.1684 O.2     1  UNL1       -0.2668
      8 C          63.1630   83.3531   15.1404 C.3     1  UNL1        0.1109
      9 N          62.7772   84.5986   14.3988 N.am    1  UNL1       -0.2990
     10 C          63.8290   85.5922   14.0033 C.2     1  UNL1        0.2505
     11 O          65.2666   85.3403   14.3493 O.2     1  UNL1       -0.2700
     12 H          61.8336   84.7639   14.1717 H       1  UNL1        0.1498
     13 C          61.6624   87.8808    9.8719 C.2     1  UNL1        0.2473
     14 O          62.0857   86.8393    8.8789 O.2     1  UNL1       -0.2701
     15 N          60.5415   88.8210    9.5409 N.am    1  UNL1       -0.3024
     16 H          60.2637   89.5046   10.1927 H       1  UNL1        0.1497
     17 C          59.8440   88.7199    8.2167 C.3     1  UNL1        0.0720
     18 C          59.0294   87.9314    7.2346 C.3     1  UNL1        0.0213
     19 C          59.4506   89.3330    6.9055 C.3     1  UNL1        0.0213
     20 C          63.6806   90.7765   13.6852 C.3     1  UNL1        0.1322
     21 C          65.0902   91.2893   13.6768 C.2     1  UNL1       -0.0123
     22 C          65.9639   91.1015   14.8816 C.2     1  UNL1       -0.0059
     23 C          67.3734   91.6143   14.8732 C.2     1  UNL1        0.0007
     24 C          67.9094   92.3150   13.6600 C.2     1  UNL1        0.0153
     25 C          67.0358   92.5028   12.4552 C.2     1  UNL1        0.0666
     26 N          67.2860   93.1491   11.1249 N.2     1  UNL1       -0.2478
     27 C          66.0311   93.0357   10.3112 C.2     1  UNL1        0.0946
     28 C          65.0052   92.3193   11.1385 C.2     1  UNL1        0.0042
     29 C          65.6262   91.9899   12.4636 C.3     1  UNL1        0.0837
@<TRIPOS>BOND
     1     8     9    1
     2     9    10   am
     3    10    11    2
     4    10     1    1
     5     1     2   ar
     6     2     3   ar
     7     3    13    1
     8    13    14    2
     9    13    15   am
    10    15    17    1
    11    17    18    1
    12    18    19    1
    13     3     4   ar
    14     4     5   ar
    15     5    20    1
    16    20    21    1
    17    21    22    2
    18    22    23    1
    19    23    24    2
    20    24    25    1
    21    25    26    2
    22    26    27    1
    23    27    28    2
    24    28    29    1
    25     5     6   ar
    26     6     7    2
    27     6     1   ar
    28    19    17    1
    29    29    21    1
    30    29    25    1
    31     9    12    1
    32    15    16    1
@<TRIPOS>MOLECULE
*****
 29 32 0 0 0
SMALL
GASTEIGER

@<TRIPOS>ATOM
      1 C          60.6463   88.2803    9.4253 C.ar    1  UNL1        0.1096
      2 C          61.2429   86.9685    9.8416 C.ar    1  UNL1        0.0153
      3 C          62.1403   86.8997   11.0415 C.ar    1  UNL1        0.0709
      4 C          62.4411   88.1429   11.8254 C.ar    1  UNL1        0.0831
      5 N          61.8444   89.4546   11.4091 N.ar    1  UNL1       -0.2900
      6 C          60.9470   89.5234   10.2091 C.ar    1  UNL1        0.2655
      7 O          60.3504   90.8352    9.7929 O.2     1  UNL1       -0.2668
      8 C          58.9215   89.5986    6.1031 C.3     1  UNL1        0.1109
      9 N          59.8189   89.5299    7.3031 N.am    1  UNL1       -0.2990
     10 C          59.7489   88.3490    8.2253 C.2     1  UNL1        0.2505
     11 O          58.7815   87.2368    7.9476 O.2     1  UNL1       -0.2700
     12 H          60.4538   90.2599    7.4853 H       1  UNL1        0.1498
     13 C          62.7369   85.5880   11.4578 C.2     1  UNL1        0.2473
     14 O          63.1719   84.5983   10.4179 O.2     1  UNL1       -0.2701
     15 N          62.8985   85.2659   12.9139 N.am    1  UNL1       -0.3024
     16 H          62.6130   85.9155   13.5963 H       1  UNL1        0.1497
     17 C          63.4952   83.9540   13.3301 C.3     1  UNL1        0.0720
     18 C          64.1088   83.0827   14.3856 C.3     1  UNL1        0.0213
     19 C          63.9149   82.5534   12.9955 C.3     1  UNL1        0.0213
     20 C          62.1452   90.6977   12.1929 C.3     1  UNL1        0.1322
     21 C          63.4792   90.8597   12.8594 C.2     1  UNL1       -0.0123
     22 C          63.7151   90.2702   14.2184 C.2     1  UNL1       -0.0059
     23 C          65.0490   90.4322   14.8849 C.2     1  UNL1        0.0007
     24 C          66.1471   91.1838   14.1925 C.2     1  UNL1        0.0153
     25 C          65.9112   91.7733   12.8336 C.2     1  UNL1        0.0666
     26 N          66.7968   92.5598   11.9132 N.2     1  UNL1       -0.2478
     27 C          66.0102   92.8838   10.6778 C.2     1  UNL1        0.0946
     28 C          64.6384   92.2976   10.8347 C.2     1  UNL1        0.0042
     29 C          64.5772   91.6113   12.1670 C.3     1  UNL1        0.0837
@<TRIPOS>BOND
     1     8     9    1
     2     9    10   am
     3    10    11    2
     4    10     1    1
     5     1     2   ar
     6     2     3   ar
     7     3    13    1
     8    13    14    2
     9    13    15   am
    10    15    17    1
    11    17    18    1
    12    18    19    1
    13     3     4   ar
    14     4     5   ar
    15     5    20    1
    16    20    21    1
    17    21    22    2
    18    22    23    1
    19    23    24    2
    20    24    25    1
    21    25    26    2
    22    26    27    1
    23    27    28    2
    24    28    29    1
    25     5     6   ar
    26     6     7    2
    27     6     1   ar
    28    19    17    1
    29    29    21    1
    30    29    25    1
    31     9    12    1
    32    15    16    1
@<TRIPOS>MOLECULE
*****
 29 32 0 0 0
SMALL
GASTEIGER

@<TRIPOS>ATOM
      1 C          63.8975   89.2821   14.0414 C.ar    1  UNL1        0.1096
      2 C          63.9305   87.8363   14.4400 C.ar    1  UNL1        0.0153
      3 C          63.5193   86.7784   13.4594 C.ar    1  UNL1        0.0709
      4 C          63.0750   87.1661   12.0801 C.ar    1  UNL1        0.0831
      5 N          63.0420   88.6118   11.6815 N.ar    1  UNL1       -0.2900
      6 C          63.4533   89.6698   12.6621 C.ar    1  UNL1        0.2655
      7 O          63.4203   91.1155   12.2636 O.2     1  UNL1       -0.2668
      8 C          65.9043   92.2711   15.7112 C.3     1  UNL1        0.1109
      9 N          65.4930   91.2132   14.7306 N.am    1  UNL1       -0.2990
     10 C          64.3087   90.3400   15.0220 C.2     1  UNL1        0.2505
     11 O          63.5357   90.5248   16.2941 O.2     1  UNL1       -0.2700
     12 H          66.0004   91.0920   13.8957 H       1  UNL1        0.1498
     13 C          63.5523   85.3327   13.8580 C.2     1  UNL1        0.2473
     14 O          64.3820   84.8963   15.0289 O.2     1  UNL1       -0.2701
     15 N          62.7555   84.3234   13.0857 N.am    1  UNL1       -0.3024
     16 H          62.2109   84.6098   12.3172 H       1  UNL1        0.1497
     17 C          62.7886   82.8776   13.4843 C.3     1  UNL1        0.0720
     18 C          62.1633   81.7095   14.1875 C.3     1  UNL1        0.0213
     19 C          63.4709   81.5419   13.4716 C.3     1  UNL1        0.0213
     20 C          62.5978   88.9995   10.3023 C.3     1  UNL1        0.1322
     21 C          61.5183   88.2175    9.6144 C.2     1  UNL1       -0.0123
     22 C          60.0980   88.6974    9.6623 C.2     1  UNL1       -0.0059
     23 C          59.0186   87.9154    8.9744 C.2     1  UNL1        0.0007
     24 C          59.3594   86.6534    8.2387 C.2     1  UNL1        0.0153
     25 C          60.7797   86.1735    8.1909 C.2     1  UNL1        0.0666
     26 N          61.4132   84.9753    7.5481 N.2     1  UNL1       -0.2478
     27 C          62.8842   85.0169    7.8387 C.2     1  UNL1        0.0946
     28 C          63.1599   86.2407    8.6611 C.2     1  UNL1        0.0042
     29 C          61.8592   86.9555    8.8788 C.3     1  UNL1        0.0837
@<TRIPOS>BOND
     1     8     9    1
     2     9    10   am
     3    10    11    2
     4    10     1    1
     5     1     2   ar
     6     2     3   ar
     7     3    13    1
     8    13    14    2
     9    13    15   am
    10    15    17    1
    11    17    18    1
    12    18    19    1
    13     3     4   ar
    14     4     5   ar
    15     5    20    1
    16    20    21    1
    17    21    22    2
    18    22    23    1
    19    23    24    2
    20    24    25    1
    21    25    26    2
    22    26    27    1
    23    27    28    2
    24    28    29    1
    25     5     6   ar
    26     6     7    2
    27     6     1   ar
    28    19    17    1
    29    29    21    1
    30    29    25    1
    31     9    12    1
    32    15    16    1
@<TRIPOS>MOLECULE
*****
 29 32 0 0 0
SMALL
GASTEIGER

@<TRIPOS>ATOM
      1 C          63.9198   88.7582   13.7998 C.ar    1  UNL1        0.1096
      2 C          63.9920   87.3333   14.2632 C.ar    1  UNL1        0.0153
      3 C          63.5037   86.2295   13.3729 C.ar    1  UNL1        0.0709
      4 C          62.9431   86.5503   12.0190 C.ar    1  UNL1        0.0831
      5 N          62.8709   87.9751   11.5556 N.ar    1  UNL1       -0.2900
      6 C          63.3592   89.0791   12.4460 C.ar    1  UNL1        0.2655
      7 O          63.2871   90.5039   11.9826 O.2     1  UNL1       -0.2668
      8 C          64.0100   91.5027   16.6651 C.3     1  UNL1        0.1109
      9 N          63.5216   90.3988   15.7746 N.am    1  UNL1       -0.2990
     10 C          64.4082   89.8621   14.6903 C.2     1  UNL1        0.2505
     11 O          65.7832   90.4294   14.4963 O.2     1  UNL1       -0.2700
     12 H          62.6191   90.0265   15.9019 H       1  UNL1        0.1498
     13 C          63.5758   84.8047   13.8363 C.2     1  UNL1        0.2473
     14 O          64.5215   84.4205   14.9354 O.2     1  UNL1       -0.2701
     15 N          62.7024   83.7641   13.2005 N.am    1  UNL1       -0.3024
     16 H          62.0817   84.0162   12.4790 H       1  UNL1        0.1497
     17 C          62.7746   82.3392   13.6639 C.3     1  UNL1        0.0720
     18 C          62.0940   81.1008   14.1670 C.3     1  UNL1        0.0213
     19 C          63.5801   81.1098   13.9634 C.3     1  UNL1        0.0213
     20 C          62.3103   88.2960   10.2018 C.3     1  UNL1        0.1322
     21 C          62.0660   87.1963    9.2113 C.2     1  UNL1       -0.0123
     22 C          63.1670   86.2367    8.8694 C.2     1  UNL1       -0.0059
     23 C          62.9228   85.1371    7.8789 C.2     1  UNL1        0.0007
     24 C          61.5774   84.9970    7.2304 C.2     1  UNL1        0.0153
     25 C          60.4765   85.9566    7.5723 C.2     1  UNL1        0.0666
     26 N          59.0577   86.0667    7.0979 N.2     1  UNL1       -0.2478
     27 C          58.4252   87.2345    7.7952 C.2     1  UNL1        0.0946
     28 C          59.4530   87.8460    8.7005 C.2     1  UNL1        0.0042
     29 C          60.7207   87.0562    8.5628 C.3     1  UNL1        0.0837
@<TRIPOS>BOND
     1     8     9    1
     2     9    10   am
     3    10    11    2
     4    10     1    1
     5     1     2   ar
     6     2     3   ar
     7     3    13    1
     8    13    14    2
     9    13    15   am
    10    15    17    1
    11    17    18    1
    12    18    19    1
    13     3     4   ar
    14     4     5   ar
    15     5    20    1
    16    20    21    1
    17    21    22    2
    18    22    23    1
    19    23    24    2
    20    24    25    1
    21    25    26    2
    22    26    27    1
    23    27    28    2
    24    28    29    1
    25     5     6   ar
    26     6     7    2
    27     6     1   ar
    28    19    17    1
    29    29    21    1
    30    29    25    1
    31     9    12    1
    32    15    16    1
