@<TRIPOS>MOLECULE
*****
 34 38 0 0 0
SMALL
GASTEIGER

@<TRIPOS>ATOM
      1 C          64.1705   90.7148   12.2319 C.ar    1  UNL1        0.0113
      2 C          63.4307   91.4946   11.1857 C.ar    1  UNL1        0.0001
      3 C          62.3961   90.8171   10.3369 C.ar    1  UNL1        0.0170
      4 C          62.1012   89.3597   10.5344 C.ar    1  UNL1        0.0625
      5 C          62.8410   88.5798   11.5805 C.ar    1  UNL1        0.0158
      6 C          63.8756   89.2574   12.4293 C.ar    1  UNL1        0.0001
      7 C          62.5461   87.1224   11.7780 C.ar    1  UNL1        0.0061
      8 C          61.5115   86.4448   10.9292 C.ar    1  UNL1        0.0608
      9 C          60.7717   87.2247    9.8830 C.ar    1  UNL1        0.2610
     10 O          59.7371   86.5471    9.0342 O.2     1  UNL1       -0.2670
     11 N          61.0666   88.6821    9.6855 N.ar    1  UNL1       -0.2935
     12 C          60.3268   89.4619    8.6393 C.3     1  UNL1        0.1335
     13 C          63.2859   86.3425   12.8242 C.ar    1  UNL1        0.0002
     14 C          63.3716   84.8483   12.7250 C.ar    1  UNL1        0.0000
     15 C          64.1114   84.0684   13.7713 C.ar    1  UNL1        0.0000
     16 C          64.7654   84.7828   14.9166 C.ar    1  UNL1        0.0000
     17 C          64.6797   86.2771   15.0158 C.ar    1  UNL1        0.0000
     18 C          63.9400   87.0569   13.9696 C.ar    1  UNL1        0.0000
     19 C          65.2051   91.3924   13.0807 C.3     1  UNL1        0.1647
     20 C          66.2398   92.0699   13.9295 C.ar    1  UNL1        0.0112
     21 C          66.3474   93.5661   13.9293 C.ar    1  UNL1       -0.0005
     22 C          67.3821   94.2436   14.7781 C.ar    1  UNL1        0.0112
     23 C          68.3090   93.4251   15.6270 C.ar    1  UNL1        0.0577
     24 CL         69.3437   94.1027   16.4757 Cl      1  UNL1       -0.0822
     25 C          68.2014   91.9290   15.6272 C.ar    1  UNL1        0.0112
     26 C          67.1667   91.2514   14.7784 C.ar    1  UNL1       -0.0005
     27 C          65.6051   92.2445   11.9129 C.ar    1  UNL1        0.0901
     28 C          64.7366   93.2499   11.2165 C.ar    1  UNL1        0.1163
     29 N          65.5386   93.8676   10.1096 N.ar    1  UNL1       -0.2226
     30 C          66.9028   93.2440   10.1218 C.ar    1  UNL1        0.1784
     31 N          66.9439   92.2409   11.2363 N.ar    1  UNL1       -0.3080
     32 C          68.1177   91.3845   11.6089 C.3     1  UNL1        0.1318
     33 C          63.8649   91.0812   15.2845 C.3     1  UNL1        0.1753
     34 O          64.8051   90.5402   14.2485 O.3     1  UNL1       -0.3422
@<TRIPOS>BOND
     1    33    34    1
     2    34    19    1
     3    19    20    1
     4    20    21   ar
     5    21    22   ar
     6    22    23   ar
     7    23    24    1
     8    23    25   ar
     9    25    26   ar
    10    19     1    1
    11     1     2   ar
    12     2     3   ar
    13     3     4   ar
    14     4     5   ar
    15     5     6   ar
    16     5     7   ar
    17     7    13    1
    18    13    14   ar
    19    14    15   ar
    20    15    16   ar
    21    16    17   ar
    22    17    18   ar
    23     7     8   ar
    24     8     9   ar
    25     9    10    2
    26     9    11   ar
    27    11    12    1
    28    19    27    1
    29    27    28   ar
    30    28    29   ar
    31    29    30   ar
    32    30    31   ar
    33    31    32    1
    34    26    20   ar
    35     6     1   ar
    36    18    13   ar
    37    31    27   ar
    38    11     4   ar
@<TRIPOS>MOLECULE
*****
 34 38 0 0 0
SMALL
GASTEIGER

@<TRIPOS>ATOM
      1 C          63.4808   90.1237   12.0665 C.ar    1  UNL1        0.0113
      2 C          62.6620   91.0214   11.1870 C.ar    1  UNL1        0.0001
      3 C          61.6559   90.4322   10.2433 C.ar    1  UNL1        0.0170
      4 C          61.4687   88.9453   10.1791 C.ar    1  UNL1        0.0625
      5 C          62.2876   88.0476   11.0586 C.ar    1  UNL1        0.0158
      6 C          63.2936   88.6368   12.0023 C.ar    1  UNL1        0.0001
      7 C          62.1004   86.5607   10.9943 C.ar    1  UNL1        0.0061
      8 C          61.0943   85.9716   10.0506 C.ar    1  UNL1        0.0608
      9 C          60.2754   86.8693    9.1711 C.ar    1  UNL1        0.2610
     10 O          59.2693   86.2801    8.2273 O.2     1  UNL1       -0.2670
     11 N          60.4626   88.3562    9.2353 N.ar    1  UNL1       -0.2935
     12 C          59.6437   89.2539    8.3558 C.3     1  UNL1        0.1335
     13 C          62.9192   85.6630   11.8738 C.ar    1  UNL1        0.0002
     14 C          63.4618   84.3739   11.3319 C.ar    1  UNL1        0.0000
     15 C          64.2807   83.4762   12.2115 C.ar    1  UNL1        0.0000
     16 C          64.5570   83.8676   13.6329 C.ar    1  UNL1        0.0000
     17 C          64.0144   85.1568   14.1748 C.ar    1  UNL1        0.0000
     18 C          63.1955   86.0545   13.2953 C.ar    1  UNL1        0.0000
     19 C          64.4870   90.7129   13.0103 C.3     1  UNL1        0.1647
     20 C          65.4930   91.3020   13.9540 C.ar    1  UNL1        0.0112
     21 C          65.0424   91.8963   15.2555 C.ar    1  UNL1       -0.0005
     22 C          66.0484   92.4854   16.1993 C.ar    1  UNL1        0.0112
     23 C          67.5052   92.4803   15.8417 C.ar    1  UNL1        0.0577
     24 CL         68.5112   93.0694   16.7854 Cl      1  UNL1       -0.0822
     25 C          67.9558   91.8860   14.5402 C.ar    1  UNL1        0.0112
     26 C          66.9498   91.2969   13.5964 C.ar    1  UNL1       -0.0005
     27 C          63.7904   90.0543   14.1639 C.ar    1  UNL1        0.0901
     28 C          62.4541   90.4416   14.7246 C.ar    1  UNL1        0.1163
     29 N          62.1456   89.5193   15.8667 N.ar    1  UNL1       -0.2226
     30 C          63.2914   88.5620   16.0119 C.ar    1  UNL1        0.1784
     31 N          64.3078   88.8926   14.9596 N.ar    1  UNL1       -0.3080
     32 C          65.6127   88.1858   14.7412 C.3     1  UNL1        0.1318
     33 C          65.2268   92.8679   11.7618 C.3     1  UNL1        0.1753
     34 O          65.1835   91.3715   11.8566 O.3     1  UNL1       -0.3422
@<TRIPOS>BOND
     1    33    34    1
     2    34    19    1
     3    19    20    1
     4    20    21   ar
     5    21    22   ar
     6    22    23   ar
     7    23    24    1
     8    23    25   ar
     9    25    26   ar
    10    19     1    1
    11     1     2   ar
    12     2     3   ar
    13     3     4   ar
    14     4     5   ar
    15     5     6   ar
    16     5     7   ar
    17     7    13    1
    18    13    14   ar
    19    14    15   ar
    20    15    16   ar
    21    16    17   ar
    22    17    18   ar
    23     7     8   ar
    24     8     9   ar
    25     9    10    2
    26     9    11   ar
    27    11    12    1
    28    19    27    1
    29    27    28   ar
    30    28    29   ar
    31    29    30   ar
    32    30    31   ar
    33    31    32    1
    34    26    20   ar
    35     6     1   ar
    36    18    13   ar
    37    31    27   ar
    38    11     4   ar
@<TRIPOS>MOLECULE
*****
 34 38 0 0 0
SMALL
GASTEIGER

@<TRIPOS>ATOM
      1 C          63.0593   85.8818   12.8073 C.ar    1  UNL1        0.0113
      2 C          63.8363   86.7364   13.7644 C.ar    1  UNL1        0.0001
      3 C          64.0038   88.2024   13.4948 C.ar    1  UNL1        0.0170
      4 C          63.3942   88.8139   12.2682 C.ar    1  UNL1        0.0625
      5 C          62.6172   87.9593   11.3112 C.ar    1  UNL1        0.0158
      6 C          62.4497   86.4933   11.5807 C.ar    1  UNL1        0.0001
      7 C          62.0077   88.5708   10.0846 C.ar    1  UNL1        0.0061
      8 C          62.1752   90.0368    9.8150 C.ar    1  UNL1        0.0608
      9 C          62.9522   90.8914   10.7720 C.ar    1  UNL1        0.2610
     10 O          63.1197   92.3574   10.5025 O.2     1  UNL1       -0.2670
     11 N          63.5618   90.2800   11.9986 N.ar    1  UNL1       -0.2935
     12 C          64.3388   91.1345   12.9557 C.3     1  UNL1        0.1335
     13 C          61.2306   87.7163    9.1275 C.ar    1  UNL1        0.0002
     14 C          61.8487   86.4726    8.5607 C.ar    1  UNL1        0.0000
     15 C          61.0716   85.6180    7.6036 C.ar    1  UNL1        0.0000
     16 C          59.6765   86.0072    7.2134 C.ar    1  UNL1        0.0000
     17 C          59.0585   87.2509    7.7802 C.ar    1  UNL1        0.0000
     18 C          59.8355   88.1054    8.7373 C.ar    1  UNL1        0.0000
     19 C          62.8918   84.4157   13.0769 C.3     1  UNL1        0.1647
     20 C          62.7243   82.9497   13.3465 C.ar    1  UNL1        0.0112
     21 C          61.3656   82.3946   13.6565 C.ar    1  UNL1       -0.0005
     22 C          61.1981   80.9286   13.9261 C.ar    1  UNL1        0.0112
     23 C          62.3892   80.0177   13.8857 C.ar    1  UNL1        0.0577
     24 CL         62.2217   78.5517   14.1552 Cl      1  UNL1       -0.0822
     25 C          63.7477   80.5727   13.5756 C.ar    1  UNL1        0.0112
     26 C          63.9153   82.0388   13.3060 C.ar    1  UNL1       -0.0005
     27 C          62.9882   84.6758   14.5510 C.ar    1  UNL1        0.0901
     28 C          61.8347   84.8846   15.4868 C.ar    1  UNL1        0.1163
     29 N          62.3887   85.1106   16.8624 N.ar    1  UNL1       -0.2226
     30 C          63.8847   85.0414   16.7767 C.ar    1  UNL1        0.1784
     31 N          64.2552   84.7727   15.3482 N.ar    1  UNL1       -0.3080
     32 C          65.6481   84.6266   14.8111 C.3     1  UNL1        0.1318
     33 C          63.9553   83.5487   10.8708 C.3     1  UNL1        0.1753
     34 O          62.7953   84.1557   11.6028 O.3     1  UNL1       -0.3422
@<TRIPOS>BOND
     1    33    34    1
     2    34    19    1
     3    19    20    1
     4    20    21   ar
     5    21    22   ar
     6    22    23   ar
     7    23    24    1
     8    23    25   ar
     9    25    26   ar
    10    19     1    1
    11     1     2   ar
    12     2     3   ar
    13     3     4   ar
    14     4     5   ar
    15     5     6   ar
    16     5     7   ar
    17     7    13    1
    18    13    14   ar
    19    14    15   ar
    20    15    16   ar
    21    16    17   ar
    22    17    18   ar
    23     7     8   ar
    24     8     9   ar
    25     9    10    2
    26     9    11   ar
    27    11    12    1
    28    19    27    1
    29    27    28   ar
    30    28    29   ar
    31    29    30   ar
    32    30    31   ar
    33    31    32    1
    34    26    20   ar
    35     6     1   ar
    36    18    13   ar
    37    31    27   ar
    38    11     4   ar
@<TRIPOS>MOLECULE
*****
 34 38 0 0 0
SMALL
GASTEIGER

@<TRIPOS>ATOM
      1 C          62.3606   93.8644   -1.0610 C.ar    1  UNL1        0.0113
      2 C          63.8060   94.0931   -1.3900 C.ar    1  UNL1        0.0001
      3 C          64.1906   94.6637   -2.7229 C.ar    1  UNL1        0.0170
      4 C          63.1297   95.0055   -3.7267 C.ar    1  UNL1        0.0625
      5 C          61.6842   94.7768   -3.3976 C.ar    1  UNL1        0.0158
      6 C          61.2997   94.2063   -2.0648 C.ar    1  UNL1        0.0001
      7 C          60.6233   95.1187   -4.4014 C.ar    1  UNL1        0.0061
      8 C          61.0079   95.6892   -5.7343 C.ar    1  UNL1        0.0608
      9 C          62.4534   95.9180   -6.0634 C.ar    1  UNL1        0.2610
     10 O          62.8380   96.4885   -7.3962 O.2     1  UNL1       -0.2670
     11 N          63.5143   95.5761   -5.0596 N.ar    1  UNL1       -0.2935
     12 C          64.9598   95.8048   -5.3886 C.3     1  UNL1        0.1335
     13 C          59.1779   94.8900   -4.0724 C.ar    1  UNL1        0.0002
     14 C          58.3361   96.0226   -3.5638 C.ar    1  UNL1        0.0000
     15 C          56.8906   95.7938   -3.2348 C.ar    1  UNL1        0.0000
     16 C          56.2869   94.4325   -3.4143 C.ar    1  UNL1        0.0000
     17 C          57.1286   93.2999   -3.9229 C.ar    1  UNL1        0.0000
     18 C          58.5741   93.5286   -4.2520 C.ar    1  UNL1        0.0000
     19 C          61.9760   93.2938    0.2719 C.3     1  UNL1        0.1647
     20 C          61.5914   92.7233    1.6048 C.ar    1  UNL1        0.0112
     21 C          62.5074   91.7610    2.3013 C.ar    1  UNL1       -0.0005
     22 C          62.1228   91.1905    3.6341 C.ar    1  UNL1        0.0112
     23 C          60.8222   91.5822    4.2706 C.ar    1  UNL1        0.0577
     24 CL         60.4377   91.0117    5.6035 Cl      1  UNL1       -0.0822
     25 C          59.9063   92.5445    3.5742 C.ar    1  UNL1        0.0112
     26 C          60.2908   93.1151    2.2413 C.ar    1  UNL1       -0.0005
     27 C          62.6288   94.4570    0.9582 C.ar    1  UNL1        0.0901
     28 C          63.9947   94.4616    1.5780 C.ar    1  UNL1        0.1163
     29 N          64.2405   95.8273    2.1480 N.ar    1  UNL1       -0.2226
     30 C          63.0263   96.6666    1.8804 C.ar    1  UNL1        0.1784
     31 N          62.0303   95.8197    1.1451 N.ar    1  UNL1       -0.3080
     32 C          60.6739   96.2584    0.6785 C.3     1  UNL1        0.1318
     33 C          59.8287   92.0013   -0.4126 C.3     1  UNL1        0.1753
     34 O          61.3231   92.1307   -0.4143 O.3     1  UNL1       -0.3422
@<TRIPOS>BOND
     1    33    34    1
     2    34    19    1
     3    19    20    1
     4    20    21   ar
     5    21    22   ar
     6    22    23   ar
     7    23    24    1
     8    23    25   ar
     9    25    26   ar
    10    19     1    1
    11     1     2   ar
    12     2     3   ar
    13     3     4   ar
    14     4     5   ar
    15     5     6   ar
    16     5     7   ar
    17     7    13    1
    18    13    14   ar
    19    14    15   ar
    20    15    16   ar
    21    16    17   ar
    22    17    18   ar
    23     7     8   ar
    24     8     9   ar
    25     9    10    2
    26     9    11   ar
    27    11    12    1
    28    19    27    1
    29    27    28   ar
    30    28    29   ar
    31    29    30   ar
    32    30    31   ar
    33    31    32    1
    34    26    20   ar
    35     6     1   ar
    36    18    13   ar
    37    31    27   ar
    38    11     4   ar
@<TRIPOS>MOLECULE
*****
 34 38 0 0 0
SMALL
GASTEIGER

@<TRIPOS>ATOM
      1 C          63.6729   85.9819   13.8192 C.ar    1  UNL1        0.0113
      2 C          64.6587   86.5172   14.8149 C.ar    1  UNL1        0.0001
      3 C          65.0162   87.9739   14.8077 C.ar    1  UNL1        0.0170
      4 C          64.3880   88.8954   13.8046 C.ar    1  UNL1        0.0625
      5 C          63.4022   88.3601   12.8088 C.ar    1  UNL1        0.0158
      6 C          63.0447   86.9034   12.8161 C.ar    1  UNL1        0.0001
      7 C          62.7739   89.2816   11.8057 C.ar    1  UNL1        0.0061
      8 C          63.1314   90.7383   11.7985 C.ar    1  UNL1        0.0608
      9 C          64.1172   91.2736   12.7943 C.ar    1  UNL1        0.2610
     10 O          64.4747   92.7304   12.7870 O.2     1  UNL1       -0.2670
     11 N          64.7455   90.3522   13.7974 N.ar    1  UNL1       -0.2935
     12 C          65.7313   90.8874   14.7932 C.3     1  UNL1        0.1335
     13 C          61.7881   88.7463   10.8099 C.ar    1  UNL1        0.0002
     14 C          60.3246   88.7292   11.1383 C.ar    1  UNL1        0.0000
     15 C          59.3387   88.1939   10.1424 C.ar    1  UNL1        0.0000
     16 C          59.8165   87.6758    8.8183 C.ar    1  UNL1        0.0000
     17 C          61.2800   87.6930    8.4900 C.ar    1  UNL1        0.0000
     18 C          62.2658   88.2282    9.4857 C.ar    1  UNL1        0.0000
     19 C          63.3154   84.5251   13.8264 C.3     1  UNL1        0.1647
     20 C          62.9578   83.0684   13.8336 C.ar    1  UNL1        0.0112
     21 C          64.0395   82.0304   13.7829 C.ar    1  UNL1       -0.0005
     22 C          63.6820   80.5736   13.7901 C.ar    1  UNL1        0.0112
     23 C          62.2428   80.1549   13.8479 C.ar    1  UNL1        0.0577
     24 CL         61.8852   78.6982   13.8551 Cl      1  UNL1       -0.0822
     25 C          61.1611   81.1929   13.8986 C.ar    1  UNL1        0.0112
     26 C          61.5186   82.6497   13.8914 C.ar    1  UNL1       -0.0005
     27 C          62.9532   84.6069   12.3731 C.ar    1  UNL1        0.0901
     28 C          61.7389   85.2784   11.8035 C.ar    1  UNL1        0.1163
     29 N          61.7769   85.1180   10.3125 N.ar    1  UNL1       -0.2226
     30 C          63.0148   84.3473    9.9607 C.ar    1  UNL1        0.1784
     31 N          63.7418   84.0314   11.2341 N.ar    1  UNL1       -0.3080
     32 C          65.0309   83.2732   11.3487 C.3     1  UNL1        0.1318
     33 C          62.6341   84.6929   16.3279 C.3     1  UNL1        0.1753
     34 O          63.6776   84.4434   15.2797 O.3     1  UNL1       -0.3422
@<TRIPOS>BOND
     1    33    34    1
     2    34    19    1
     3    19    20    1
     4    20    21   ar
     5    21    22   ar
     6    22    23   ar
     7    23    24    1
     8    23    25   ar
     9    25    26   ar
    10    19     1    1
    11     1     2   ar
    12     2     3   ar
    13     3     4   ar
    14     4     5   ar
    15     5     6   ar
    16     5     7   ar
    17     7    13    1
    18    13    14   ar
    19    14    15   ar
    20    15    16   ar
    21    16    17   ar
    22    17    18   ar
    23     7     8   ar
    24     8     9   ar
    25     9    10    2
    26     9    11   ar
    27    11    12    1
    28    19    27    1
    29    27    28   ar
    30    28    29   ar
    31    29    30   ar
    32    30    31   ar
    33    31    32    1
    34    26    20   ar
    35     6     1   ar
    36    18    13   ar
    37    31    27   ar
    38    11     4   ar
@<TRIPOS>MOLECULE
*****
 34 38 0 0 0
SMALL
GASTEIGER

@<TRIPOS>ATOM
      1 C          63.2810   85.2260   12.4073 C.ar    1  UNL1        0.0113
      2 C          64.1094   85.6727   13.5752 C.ar    1  UNL1        0.0001
      3 C          64.2685   87.1355   13.8661 C.ar    1  UNL1        0.0170
      4 C          63.5993   88.1517   12.9889 C.ar    1  UNL1        0.0625
      5 C          62.7709   87.7051   11.8209 C.ar    1  UNL1        0.0158
      6 C          62.6117   86.2422   11.5301 C.ar    1  UNL1        0.0001
      7 C          62.1016   88.7213   10.9438 C.ar    1  UNL1        0.0061
      8 C          62.2608   90.1842   11.2346 C.ar    1  UNL1        0.0608
      9 C          63.0892   90.6309   12.4026 C.ar    1  UNL1        0.2610
     10 O          63.2484   92.0938   12.6934 O.2     1  UNL1       -0.2670
     11 N          63.7585   89.6147   13.2797 N.ar    1  UNL1       -0.2935
     12 C          64.5869   90.0613   14.4477 C.3     1  UNL1        0.1335
     13 C          61.2732   88.2746    9.7758 C.ar    1  UNL1        0.0002
     14 C          60.3786   89.2524    9.0732 C.ar    1  UNL1        0.0000
     15 C          59.5502   88.8057    7.9052 C.ar    1  UNL1        0.0000
     16 C          59.6164   87.3813    7.4398 C.ar    1  UNL1        0.0000
     17 C          60.5111   86.4035    8.1424 C.ar    1  UNL1        0.0000
     18 C          61.3395   86.8502    9.3103 C.ar    1  UNL1        0.0000
     19 C          63.1218   83.7630   12.1164 C.3     1  UNL1        0.1647
     20 C          62.9626   82.3002   11.8256 C.ar    1  UNL1        0.0112
     21 C          62.4110   81.3823   12.8761 C.ar    1  UNL1       -0.0005
     22 C          62.2519   79.9194   12.5853 C.ar    1  UNL1        0.0112
     23 C          62.6442   79.3743   11.2441 C.ar    1  UNL1        0.0577
     24 CL         62.4850   77.9115   10.9533 Cl      1  UNL1       -0.0822
     25 C          63.1957   80.2921   10.1936 C.ar    1  UNL1        0.0112
     26 C          63.3549   81.7551   10.4844 C.ar    1  UNL1       -0.0005
     27 C          63.5136   83.4399   13.5278 C.ar    1  UNL1        0.0901
     28 C          64.7778   82.7562   13.9573 C.ar    1  UNL1        0.1163
     29 N          64.7555   82.6374   15.4525 N.ar    1  UNL1       -0.2226
     30 C          63.4775   83.2476   15.9470 C.ar    1  UNL1        0.1784
     31 N          62.7100   83.7435   14.7575 N.ar    1  UNL1       -0.3080
     32 C          61.3735   84.4237   14.7916 C.3     1  UNL1        0.1318
     33 C          63.7768   84.1544    9.6330 C.3     1  UNL1        0.1753
     34 O          62.7299   84.0862   10.7051 O.3     1  UNL1       -0.3422
@<TRIPOS>BOND
     1    33    34    1
     2    34    19    1
     3    19    20    1
     4    20    21   ar
     5    21    22   ar
     6    22    23   ar
     7    23    24    1
     8    23    25   ar
     9    25    26   ar
    10    19     1    1
    11     1     2   ar
    12     2     3   ar
    13     3     4   ar
    14     4     5   ar
    15     5     6   ar
    16     5     7   ar
    17     7    13    1
    18    13    14   ar
    19    14    15   ar
    20    15    16   ar
    21    16    17   ar
    22    17    18   ar
    23     7     8   ar
    24     8     9   ar
    25     9    10    2
    26     9    11   ar
    27    11    12    1
    28    19    27    1
    29    27    28   ar
    30    28    29   ar
    31    29    30   ar
    32    30    31   ar
    33    31    32    1
    34    26    20   ar
    35     6     1   ar
    36    18    13   ar
    37    31    27   ar
    38    11     4   ar
@<TRIPOS>MOLECULE
*****
 34 38 0 0 0
SMALL
GASTEIGER

@<TRIPOS>ATOM
      1 C          61.8334   86.0771   10.7967 C.ar    1  UNL1        0.0113
      2 C          61.8183   84.5877   10.6198 C.ar    1  UNL1        0.0001
      3 C          62.4690   83.7044   11.6427 C.ar    1  UNL1        0.0170
      4 C          63.1349   84.3104   12.8423 C.ar    1  UNL1        0.0625
      5 C          63.1501   85.7999   13.0192 C.ar    1  UNL1        0.0158
      6 C          62.4993   86.6832   11.9964 C.ar    1  UNL1        0.0001
      7 C          63.8160   86.4060   14.2188 C.ar    1  UNL1        0.0061
      8 C          64.4668   85.5226   15.2417 C.ar    1  UNL1        0.0608
      9 C          64.4516   84.0331   15.0648 C.ar    1  UNL1        0.2610
     10 O          65.1024   83.1498   16.0876 O.2     1  UNL1       -0.2670
     11 N          63.7857   83.4270   13.8652 N.ar    1  UNL1       -0.2935
     12 C          63.7705   81.9376   13.6883 C.3     1  UNL1        0.1335
     13 C          63.8312   87.8954   14.3957 C.ar    1  UNL1        0.0002
     14 C          63.4276   88.4990   15.7083 C.ar    1  UNL1        0.0000
     15 C          63.4428   89.9885   15.8851 C.ar    1  UNL1        0.0000
     16 C          63.8615   90.8743   14.7494 C.ar    1  UNL1        0.0000
     17 C          64.2651   90.2708   13.4368 C.ar    1  UNL1        0.0000
     18 C          64.2499   88.7813   13.2600 C.ar    1  UNL1        0.0000
     19 C          61.1826   86.9605    9.7739 C.3     1  UNL1        0.1647
     20 C          60.5319   87.8440    8.7511 C.ar    1  UNL1        0.0112
     21 C          60.8066   89.3186    8.7501 C.ar    1  UNL1       -0.0005
     22 C          60.1559   90.2020    7.7273 C.ar    1  UNL1        0.0112
     23 C          59.2304   89.6109    6.7056 C.ar    1  UNL1        0.0577
     24 CL         58.5796   90.4943    5.6828 Cl      1  UNL1       -0.0822
     25 C          58.9557   88.1363    6.7066 C.ar    1  UNL1        0.0112
     26 C          59.6064   87.2528    7.7293 C.ar    1  UNL1       -0.0005
     27 C          60.8397   87.9506   10.8472 C.ar    1  UNL1        0.0901
     28 C          59.6679   87.8690   11.7801 C.ar    1  UNL1        0.1163
     29 N          59.7122   89.0641   12.6857 N.ar    1  UNL1       -0.2226
     30 C          60.9115   89.8842   12.3124 C.ar    1  UNL1        0.1784
     31 N          61.6082   89.1961   11.1762 N.ar    1  UNL1       -0.3080
     32 C          62.8547   89.6700   10.4895 C.3     1  UNL1        0.1318
     33 C          62.9524   85.7914    8.2735 C.3     1  UNL1        0.1753
     34 O          61.5256   85.9705    8.7005 O.3     1  UNL1       -0.3422
@<TRIPOS>BOND
     1    33    34    1
     2    34    19    1
     3    19    20    1
     4    20    21   ar
     5    21    22   ar
     6    22    23   ar
     7    23    24    1
     8    23    25   ar
     9    25    26   ar
    10    19     1    1
    11     1     2   ar
    12     2     3   ar
    13     3     4   ar
    14     4     5   ar
    15     5     6   ar
    16     5     7   ar
    17     7    13    1
    18    13    14   ar
    19    14    15   ar
    20    15    16   ar
    21    16    17   ar
    22    17    18   ar
    23     7     8   ar
    24     8     9   ar
    25     9    10    2
    26     9    11   ar
    27    11    12    1
    28    19    27    1
    29    27    28   ar
    30    28    29   ar
    31    29    30   ar
    32    30    31   ar
    33    31    32    1
    34    26    20   ar
    35     6     1   ar
    36    18    13   ar
    37    31    27   ar
    38    11     4   ar
