@<TRIPOS>MOLECULE
*****
 39 43 0 0 0
SMALL
GASTEIGER

@<TRIPOS>ATOM
      1 C          63.3322   90.1488   14.6443 C.ar    1  UNL1        0.1627
      2 N          64.5605   90.8643   15.1231 N.ar    1  UNL1       -0.2276
      3 C          65.3876   91.6619   14.1589 C.ar    1  UNL1        0.0874
      4 C          64.9864   91.7440   12.7159 C.ar    1  UNL1        0.0380
      5 C          63.7580   91.0285   12.2371 C.ar    1  UNL1        0.0428
      6 C          62.9309   90.2309   13.2013 C.ar    1  UNL1        0.1698
      7 C          65.8135   92.5416   11.7516 C.ar    1  UNL1        0.0777
      8 C          67.1451   92.0218   11.2971 C.ar    1  UNL1        0.1176
      9 N          67.9721   92.8194   10.3329 N.ar    1  UNL1       -0.2209
     10 C          67.4676   94.1368    9.8232 C.ar    1  UNL1        0.2006
     11 N          68.0563   95.1376    8.8733 N.ar    1  UNL1       -0.1272
     12 N          67.0885   96.2759    8.7409 N.ar    1  UNL1       -0.1493
     13 C          65.9017   95.9787    9.6088 C.ar    1  UNL1        0.0995
     14 C          64.6928   96.8504    9.7782 C.3     1  UNL1        0.0557
     15 C          66.1360   94.6567   10.2777 C.ar    1  UNL1        0.1101
     16 N          65.3090   93.8591   11.2419 N.ar    1  UNL1       -0.3484
     17 H          64.4350   94.2002   11.5403 H       1  UNL1        0.1661
     18 C          66.6160   92.3774   14.6376 C.ar    1  UNL1        0.0585
     19 C          67.8250   91.7380   15.2538 C.ar    1  UNL1        0.0453
     20 C          68.8072   92.8233   15.5813 C.ar    1  UNL1        0.1798
     21 O          68.2053   94.1335   15.1676 O.2     1  UNL1       -0.4473
     22 C          66.8511   93.8578   14.5844 C.ar    1  UNL1        0.1812
     23 N          62.5051   89.3512   15.6085 N.pl3   1  UNL1       -0.3157
     24 H          61.5468   89.2082   15.4340 H       1  UNL1        0.1483
     25 C          63.1310   87.2875   17.0575 C.3     1  UNL1        0.0230
     26 C          63.1380   88.7715   16.8387 C.3     1  UNL1        0.0883
     27 O          61.7026   89.5155   12.7225 O.3     1  UNL1       -0.4712
     28 C          60.8758   90.1023   11.6171 C.3     1  UNL1        0.2211
     29 C          60.4211   89.2363   10.4798 C.3     1  UNL1        0.0995
     30 N          60.2473   89.8257    9.1114 N.3     1  UNL1       -0.3190
     31 H          59.9356   89.1001    8.4658 H       1  UNL1        0.1189
     32 H          61.1368   90.2075    8.7901 H       1  UNL1        0.1189
     33 C          60.1404   87.7810   10.7108 C.3     1  UNL1        0.0456
     34 C          61.1580   86.7499   10.3220 C.ar    1  UNL1       -0.0207
     35 C          61.7435   85.8437   11.3641 C.ar    1  UNL1       -0.0042
     36 C          62.7612   84.8126   10.9752 C.ar    1  UNL1       -0.0003
     37 C          63.1933   84.6877    9.5442 C.ar    1  UNL1       -0.0000
     38 C          62.6078   85.5939    8.5021 C.ar    1  UNL1       -0.0003
     39 C          61.5902   86.6250    8.8910 C.ar    1  UNL1       -0.0042
@<TRIPOS>BOND
     1    25    26    1
     2    26    23    1
     3    23     1    1
     4     1     2   ar
     5     2     3   ar
     6     3    18    1
     7    18    19   ar
     8    19    20   ar
     9    20    21   ar
    10    21    22   ar
    11     3     4   ar
    12     4     7    1
    13     7     8   ar
    14     8     9   ar
    15     9    10   ar
    16    10    11   ar
    17    11    12   ar
    18    12    13   ar
    19    13    14    1
    20    13    15   ar
    21    15    16   ar
    22     4     5   ar
    23     5     6   ar
    24     6    27    1
    25    27    28    1
    26    28    29    1
    27    29    30    1
    28    29    33    1
    29    33    34    1
    30    34    35   ar
    31    35    36   ar
    32    36    37   ar
    33    37    38   ar
    34    38    39   ar
    35     6     1   ar
    36    39    34   ar
    37    22    18   ar
    38    16     7   ar
    39    15    10    1
    40    23    24    1
    41    16    17    1
    42    30    31    1
    43    30    32    1
@<TRIPOS>MOLECULE
*****
 39 43 0 0 0
SMALL
GASTEIGER

@<TRIPOS>ATOM
      1 C          64.1587   89.4310   14.5159 C.ar    1  UNL1        0.1627
      2 N          65.3442   90.2178   14.9908 N.ar    1  UNL1       -0.2276
      3 C          65.9001   91.3226   14.1419 C.ar    1  UNL1        0.0874
      4 C          65.2704   91.6405   12.8181 C.ar    1  UNL1        0.0380
      5 C          64.0850   90.8537   12.3432 C.ar    1  UNL1        0.0428
      6 C          63.5291   89.7490   13.1920 C.ar    1  UNL1        0.1698
      7 C          65.8263   92.7453   11.9692 C.ar    1  UNL1        0.0777
      8 C          65.4730   94.1719   12.2691 C.ar    1  UNL1        0.1176
      9 N          66.0288   95.2765   11.4202 N.ar    1  UNL1       -0.2209
     10 C          66.9380   94.9546   10.2714 C.ar    1  UNL1        0.2006
     11 N          67.6333   95.8254    9.2671 N.ar    1  UNL1       -0.1272
     12 N          68.4163   94.9369    8.3465 N.ar    1  UNL1       -0.1493
     13 C          68.2049   93.5171    8.7819 C.ar    1  UNL1        0.0995
     14 C          68.8023   92.2999    8.1402 C.3     1  UNL1        0.0557
     15 C          67.2913   93.5280    9.9715 C.ar    1  UNL1        0.1101
     16 N          66.7355   92.4234   10.8204 N.ar    1  UNL1       -0.3484
     17 H          66.9674   91.4870   10.6235 H       1  UNL1        0.1661
     18 C          67.0855   92.1094   14.6169 C.ar    1  UNL1        0.0585
     19 C          67.0993   93.0786   15.7617 C.ar    1  UNL1        0.0453
     20 C          68.4876   93.6334   15.8827 C.ar    1  UNL1        0.1798
     21 O          69.3320   93.0071   14.8128 O.2     1  UNL1       -0.4473
     22 C          68.4654   92.0652   14.0304 C.ar    1  UNL1        0.1812
     23 N          63.6029   88.3263   15.3647 N.pl3   1  UNL1       -0.3157
     24 H          63.5347   87.4136   15.0021 H       1  UNL1        0.1483
     25 C          62.7782   87.4821   17.6793 C.3     1  UNL1        0.0230
     26 C          63.1508   88.6123   16.7661 C.3     1  UNL1        0.0883
     27 O          62.3436   88.9622   12.7171 O.3     1  UNL1       -0.4712
     28 C          62.2931   88.4614   11.3040 C.3     1  UNL1        0.2211
     29 C          61.1842   87.5489   10.8709 C.3     1  UNL1        0.0995
     30 N          59.7776   87.8121   11.3204 N.3     1  UNL1       -0.3190
     31 H          59.1585   87.0988   10.9353 H       1  UNL1        0.1189
     32 H          59.4823   88.7317   10.9925 H       1  UNL1        0.1189
     33 C          61.4819   86.3732    9.9882 C.3     1  UNL1        0.0456
     34 C          62.3896   85.2820   10.4733 C.ar    1  UNL1       -0.0207
     35 C          63.2164   84.5032    9.4935 C.ar    1  UNL1       -0.0042
     36 C          64.1241   83.4120    9.9786 C.ar    1  UNL1       -0.0003
     37 C          64.2050   83.0996   11.4435 C.ar    1  UNL1       -0.0000
     38 C          63.3783   83.8783   12.4232 C.ar    1  UNL1       -0.0003
     39 C          62.4706   84.9696   11.9381 C.ar    1  UNL1       -0.0042
@<TRIPOS>BOND
     1    25    26    1
     2    26    23    1
     3    23     1    1
     4     1     2   ar
     5     2     3   ar
     6     3    18    1
     7    18    19   ar
     8    19    20   ar
     9    20    21   ar
    10    21    22   ar
    11     3     4   ar
    12     4     7    1
    13     7     8   ar
    14     8     9   ar
    15     9    10   ar
    16    10    11   ar
    17    11    12   ar
    18    12    13   ar
    19    13    14    1
    20    13    15   ar
    21    15    16   ar
    22     4     5   ar
    23     5     6   ar
    24     6    27    1
    25    27    28    1
    26    28    29    1
    27    29    30    1
    28    29    33    1
    29    33    34    1
    30    34    35   ar
    31    35    36   ar
    32    36    37   ar
    33    37    38   ar
    34    38    39   ar
    35     6     1   ar
    36    39    34   ar
    37    22    18   ar
    38    16     7   ar
    39    15    10    1
    40    23    24    1
    41    16    17    1
    42    30    31    1
    43    30    32    1
@<TRIPOS>MOLECULE
*****
 39 43 0 0 0
SMALL
GASTEIGER

@<TRIPOS>ATOM
      1 C          61.5815   89.2331   10.4710 C.ar    1  UNL1        0.1627
      2 N          61.3578   88.3162    9.3051 N.ar    1  UNL1       -0.2276
      3 C          61.7368   86.8683    9.4061 C.ar    1  UNL1        0.0874
      4 C          62.3393   86.3374   10.6730 C.ar    1  UNL1        0.0380
      5 C          62.5630   87.2542   11.8389 C.ar    1  UNL1        0.0428
      6 C          62.1841   88.7020   11.7379 C.ar    1  UNL1        0.1698
      7 C          62.7183   84.8895   10.7740 C.ar    1  UNL1        0.0777
      8 C          63.6290   84.2794    9.7501 C.ar    1  UNL1        0.1176
      9 N          64.0079   82.8316    9.8511 N.ar    1  UNL1       -0.2209
     10 C          63.4761   81.9939   10.9761 C.ar    1  UNL1        0.2006
     11 N          63.6736   80.5503   11.3328 N.ar    1  UNL1       -0.1272
     12 N          62.8850   80.2683   12.5772 N.ar    1  UNL1       -0.1493
     13 C          62.2001   81.5375   12.9895 C.ar    1  UNL1        0.0995
     14 C          61.3068   81.7101   14.1820 C.3     1  UNL1        0.0557
     15 C          62.5654   82.6040   12.0000 C.ar    1  UNL1        0.1101
     16 N          62.1865   84.0518   11.8989 N.ar    1  UNL1       -0.3484
     17 H          61.5888   84.4522   12.5710 H       1  UNL1        0.1661
     18 C          61.5131   85.9514    8.2402 C.ar    1  UNL1        0.0585
     19 C          62.5790   85.2380    7.4624 C.ar    1  UNL1        0.0453
     20 C          61.9089   84.4327    6.3889 C.ar    1  UNL1        0.1798
     21 O          60.4289   84.6483    6.5032 O.2     1  UNL1       -0.4473
     22 C          60.1843   85.5870    7.6474 C.ar    1  UNL1        0.1812
     23 N          61.2026   90.6809   10.3701 N.pl3   1  UNL1       -0.3157
     24 H          61.7985   91.3147    9.9094 H       1  UNL1        0.1483
     25 C          59.0768   90.2308   11.7944 C.3     1  UNL1        0.0230
     26 C          59.9156   91.1629   10.9711 C.3     1  UNL1        0.0883
     27 O          62.4077   89.6189   12.9038 O.3     1  UNL1       -0.4712
     28 C          63.6812   90.4048   13.0064 C.3     1  UNL1        0.2211
     29 C          64.3947   90.5084   14.3218 C.3     1  UNL1        0.0995
     30 N          65.7607   91.1246   14.3876 N.3     1  UNL1       -0.3190
     31 H          66.0929   91.1129   15.3519 H       1  UNL1        0.1189
     32 H          65.7154   92.0879   14.0553 H       1  UNL1        0.1189
     33 C          63.7423   89.9956   15.5714 C.3     1  UNL1        0.0456
     34 C          63.6988   88.5213   15.8440 C.ar    1  UNL1       -0.0207
     35 C          62.9840   88.0036   17.0570 C.ar    1  UNL1       -0.0042
     36 C          62.9405   86.5292   17.3296 C.ar    1  UNL1       -0.0003
     37 C          63.6118   85.5725   16.3892 C.ar    1  UNL1       -0.0000
     38 C          64.3265   86.0902   15.1763 C.ar    1  UNL1       -0.0003
     39 C          64.3700   87.5646   14.9037 C.ar    1  UNL1       -0.0042
@<TRIPOS>BOND
     1    25    26    1
     2    26    23    1
     3    23     1    1
     4     1     2   ar
     5     2     3   ar
     6     3    18    1
     7    18    19   ar
     8    19    20   ar
     9    20    21   ar
    10    21    22   ar
    11     3     4   ar
    12     4     7    1
    13     7     8   ar
    14     8     9   ar
    15     9    10   ar
    16    10    11   ar
    17    11    12   ar
    18    12    13   ar
    19    13    14    1
    20    13    15   ar
    21    15    16   ar
    22     4     5   ar
    23     5     6   ar
    24     6    27    1
    25    27    28    1
    26    28    29    1
    27    29    30    1
    28    29    33    1
    29    33    34    1
    30    34    35   ar
    31    35    36   ar
    32    36    37   ar
    33    37    38   ar
    34    38    39   ar
    35     6     1   ar
    36    39    34   ar
    37    22    18   ar
    38    16     7   ar
    39    15    10    1
    40    23    24    1
    41    16    17    1
    42    30    31    1
    43    30    32    1
@<TRIPOS>MOLECULE
*****
 39 43 0 0 0
SMALL
GASTEIGER

@<TRIPOS>ATOM
      1 C          63.9742   83.2985   11.8658 C.ar    1  UNL1        0.1627
      2 N          63.3153   83.5931   10.5508 N.ar    1  UNL1       -0.2276
      3 C          62.6608   84.9231   10.3211 C.ar    1  UNL1        0.0874
      4 C          62.6650   85.9585   11.4064 C.ar    1  UNL1        0.0380
      5 C          63.3238   85.6639   12.7214 C.ar    1  UNL1        0.0428
      6 C          63.9784   84.3340   12.9511 C.ar    1  UNL1        0.1698
      7 C          62.0104   87.2885   11.1767 C.ar    1  UNL1        0.0777
      8 C          62.6520   88.2928   10.2660 C.ar    1  UNL1        0.1176
      9 N          61.9975   89.6228   10.0364 N.ar    1  UNL1       -0.2209
     10 C          60.7013   89.9483   10.7175 C.ar    1  UNL1        0.2006
     11 N          59.8284   91.1678   10.6839 N.ar    1  UNL1       -0.1272
     12 N          58.6473   90.9170   11.5740 N.ar    1  UNL1       -0.1493
     13 C          58.7903   89.5426   12.1576 C.ar    1  UNL1        0.0995
     14 C          57.8321   88.8827   13.1043 C.3     1  UNL1        0.0557
     15 C          60.0597   88.9439   11.6282 C.ar    1  UNL1        0.1101
     16 N          60.7143   87.6140   11.8579 N.ar    1  UNL1       -0.3484
     17 H          60.2932   86.9548   12.4556 H       1  UNL1        0.1661
     18 C          62.0019   85.2176    9.0061 C.ar    1  UNL1        0.0585
     19 C          60.6634   85.8675    8.8166 C.ar    1  UNL1        0.0453
     20 C          60.4002   85.9655    7.3431 C.ar    1  UNL1        0.1798
     21 O          61.5761   85.3762    6.6220 O.2     1  UNL1       -0.4473
     22 C          62.5660   84.9140    7.6498 C.ar    1  UNL1        0.1812
     23 N          64.6287   81.9686   12.0955 N.pl3   1  UNL1       -0.3157
     24 H          65.4724   81.7496   11.6378 H       1  UNL1        0.1483
     25 C          62.5071   80.8071   13.0441 C.3     1  UNL1        0.0230
     26 C          63.9978   80.9724   13.0225 C.3     1  UNL1        0.0883
     27 O          64.6372   84.0394   14.2661 O.3     1  UNL1       -0.4712
     28 C          63.8008   83.8253   15.4927 C.3     1  UNL1        0.2211
     29 C          62.9067   84.9214   15.9916 C.3     1  UNL1        0.0995
     30 N          61.4460   84.9113   15.6509 N.3     1  UNL1       -0.3190
     31 H          60.9937   85.7243   16.0692 H       1  UNL1        0.1189
     32 H          61.0180   84.0597   16.0143 H       1  UNL1        0.1189
     33 C          63.4734   86.0278   16.8312 C.3     1  UNL1        0.0456
     34 C          63.6024   87.4099   16.2628 C.ar    1  UNL1       -0.0207
     35 C          64.2961   87.6190   14.9494 C.ar    1  UNL1       -0.0042
     36 C          64.4251   89.0011   14.3810 C.ar    1  UNL1       -0.0003
     37 C          63.8604   90.1742   15.1260 C.ar    1  UNL1       -0.0000
     38 C          63.1667   89.9651   16.4394 C.ar    1  UNL1       -0.0003
     39 C          63.0377   88.5830   17.0078 C.ar    1  UNL1       -0.0042
@<TRIPOS>BOND
     1    25    26    1
     2    26    23    1
     3    23     1    1
     4     1     2   ar
     5     2     3   ar
     6     3    18    1
     7    18    19   ar
     8    19    20   ar
     9    20    21   ar
    10    21    22   ar
    11     3     4   ar
    12     4     7    1
    13     7     8   ar
    14     8     9   ar
    15     9    10   ar
    16    10    11   ar
    17    11    12   ar
    18    12    13   ar
    19    13    14    1
    20    13    15   ar
    21    15    16   ar
    22     4     5   ar
    23     5     6   ar
    24     6    27    1
    25    27    28    1
    26    28    29    1
    27    29    30    1
    28    29    33    1
    29    33    34    1
    30    34    35   ar
    31    35    36   ar
    32    36    37   ar
    33    37    38   ar
    34    38    39   ar
    35     6     1   ar
    36    39    34   ar
    37    22    18   ar
    38    16     7   ar
    39    15    10    1
    40    23    24    1
    41    16    17    1
    42    30    31    1
    43    30    32    1
