@<TRIPOS>MOLECULE
*****
 16 18 0 0 0
SMALL
GASTEIGER

@<TRIPOS>ATOM
      1 O          64.5523   89.9568   13.4815 O.3     1  UNL1       -0.4724
      2 CL         62.6885   86.4909   18.0108 Cl      1  UNL1       -0.0613
      3 C          63.1545   87.3574   16.8785 C.ar    1  UNL1        0.1386
      4 C          62.9998   88.8471   16.9612 C.ar    1  UNL1        0.0339
      5 C          63.4657   89.7135   15.8289 C.ar    1  UNL1        0.0410
      6 C          64.0863   89.0904   14.6138 C.ar    1  UNL1        0.1578
      7 C          64.2410   87.6007   14.5311 C.ar    1  UNL1        0.1366
      8 N          63.7751   86.7342   15.6634 N.ar    1  UNL1       -0.2293
      9 C          64.6808   91.4387   13.6749 C.3     1  UNL1        0.2210
     10 C          65.9139   92.0078   14.3118 C.3     1  UNL1        0.0983
     11 C          67.1965   91.2718   14.5628 C.3     1  UNL1        0.0209
     12 C          68.1562   92.2220   15.2157 C.3     1  UNL1        0.0172
     13 C          68.8792   93.3765   15.8434 C.3     1  UNL1        0.0171
     14 C          67.4666   93.5453   15.3681 C.3     1  UNL1        0.0541
     15 N          66.0808   93.4131   14.8095 N.3     1  UNL1       -0.2966
     16 H          65.9536   94.0703   14.0399 H       1  UNL1        0.1233
@<TRIPOS>BOND
     1     2     3    1
     2     3     4   ar
     3     4     5   ar
     4     5     6   ar
     5     6     1    1
     6     1     9    1
     7    10     9    1
     8    10    11    1
     9    12    11    1
    10    12    13    1
    11    14    13    1
    12    14    15    1
    13     6     7   ar
    14     7     8   ar
    15     8     3   ar
    16    15    10    1
    17    14    12    1
    18    15    16    1
@<TRIPOS>MOLECULE
*****
 16 18 0 0 0
SMALL
GASTEIGER

@<TRIPOS>ATOM
      1 O          63.9443   91.8958   12.7780 O.3     1  UNL1       -0.4724
      2 CL         62.0480   86.6244   10.6292 Cl      1  UNL1       -0.0613
      3 C          62.5221   87.9423   11.1664 C.ar    1  UNL1        0.1386
      4 C          62.3511   89.1897   10.3512 C.ar    1  UNL1        0.0339
      5 C          62.8252   90.5076   10.8884 C.ar    1  UNL1        0.0410
      6 C          63.4702   90.5779   12.2408 C.ar    1  UNL1        0.1578
      7 C          63.6412   89.3305   13.0559 C.ar    1  UNL1        0.1366
      8 N          63.1671   88.0126   12.5188 N.ar    1  UNL1       -0.2293
      9 C          65.2965   92.4194   12.3942 C.3     1  UNL1        0.2210
     10 C          66.3376   92.6524   13.4486 C.3     1  UNL1        0.0983
     11 C          67.6169   91.8859   13.6091 C.3     1  UNL1        0.0209
     12 C          68.3521   92.4525   14.7874 C.3     1  UNL1        0.0172
     13 C          68.8412   93.2126   15.9845 C.3     1  UNL1        0.0171
     14 C          67.5272   93.5692   15.3552 C.3     1  UNL1        0.0541
     15 N          66.2821   93.6928   14.5278 N.3     1  UNL1       -0.2966
     16 H          66.2346   94.6223   14.1104 H       1  UNL1        0.1233
@<TRIPOS>BOND
     1     2     3    1
     2     3     4   ar
     3     4     5   ar
     4     5     6   ar
     5     6     1    1
     6     1     9    1
     7    10     9    1
     8    10    11    1
     9    12    11    1
    10    12    13    1
    11    14    13    1
    12    14    15    1
    13     6     7   ar
    14     7     8   ar
    15     8     3   ar
    16    15    10    1
    17    14    12    1
    18    15    16    1
@<TRIPOS>MOLECULE
*****
 16 18 0 0 0
SMALL
GASTEIGER

@<TRIPOS>ATOM
      1 O          63.7922   84.2276   15.8103 O.3     1  UNL1       -0.4724
      2 CL         63.5680   90.2220   15.9388 Cl      1  UNL1       -0.0613
      3 C          63.6241   88.7234   15.9067 C.ar    1  UNL1        0.1386
      4 C          64.3208   88.0229   14.7780 C.ar    1  UNL1        0.0339
      5 C          64.3768   86.5243   14.7459 C.ar    1  UNL1        0.0410
      6 C          63.7361   85.7262   15.8424 C.ar    1  UNL1        0.1578
      7 C          63.0394   86.4266   16.9711 C.ar    1  UNL1        0.1366
      8 N          62.9834   87.9252   17.0032 N.ar    1  UNL1       -0.2293
      9 C          62.9142   83.4644   14.8634 C.3     1  UNL1        0.2210
     10 C          63.2573   83.4060   13.4043 C.3     1  UNL1        0.0983
     11 C          62.6519   84.2495   12.3218 C.3     1  UNL1        0.0209
     12 C          63.2864   83.8587   11.0200 C.3     1  UNL1        0.0172
     13 C          64.0823   83.2656    9.8954 C.3     1  UNL1        0.0171
     14 C          64.2840   82.7736   11.2980 C.3     1  UNL1        0.0541
     15 N          64.2661   82.4937   12.7715 N.3     1  UNL1       -0.2966
     16 H          65.1890   82.6697   13.1686 H       1  UNL1        0.1233
@<TRIPOS>BOND
     1     2     3    1
     2     3     4   ar
     3     4     5   ar
     4     5     6   ar
     5     6     1    1
     6     1     9    1
     7    10     9    1
     8    10    11    1
     9    12    11    1
    10    12    13    1
    11    14    13    1
    12    14    15    1
    13     6     7   ar
    14     7     8   ar
    15     8     3   ar
    16    15    10    1
    17    14    12    1
    18    15    16    1
@<TRIPOS>MOLECULE
*****
 16 18 0 0 0
SMALL
GASTEIGER

@<TRIPOS>ATOM
      1 O          64.5876   92.1153   13.1185 O.3     1  UNL1       -0.4724
      2 CL         61.7608   87.7443   10.1346 Cl      1  UNL1       -0.0613
      3 C          62.4675   88.8370   10.8806 C.ar    1  UNL1        0.1386
      4 C          62.7235   90.1561   10.2139 C.ar    1  UNL1        0.0339
      5 C          63.4302   91.2488   10.9599 C.ar    1  UNL1        0.0410
      6 C          63.8809   91.0225   12.3725 C.ar    1  UNL1        0.1578
      7 C          63.6250   89.7034   13.0392 C.ar    1  UNL1        0.1366
      8 N          62.9183   88.6107   12.2932 N.ar    1  UNL1       -0.2293
      9 C          66.0528   92.3483   12.8972 C.3     1  UNL1        0.2210
     10 C          66.5160   93.1308   11.7042 C.3     1  UNL1        0.0983
     11 C          67.0734   92.5568   10.4355 C.3     1  UNL1        0.0209
     12 C          67.4050   93.6959    9.5177 C.3     1  UNL1        0.0172
     13 C          67.6299   95.0126    8.8353 C.3     1  UNL1        0.0171
     14 C          67.0525   94.9741   10.2192 C.3     1  UNL1        0.0541
     15 N          66.5030   94.6249   11.5706 N.3     1  UNL1       -0.2966
     16 H          65.5476   94.9718   11.6559 H       1  UNL1        0.1233
@<TRIPOS>BOND
     1     2     3    1
     2     3     4   ar
     3     4     5   ar
     4     5     6   ar
     5     6     1    1
     6     1     9    1
     7    10     9    1
     8    10    11    1
     9    12    11    1
    10    12    13    1
    11    14    13    1
    12    14    15    1
    13     6     7   ar
    14     7     8   ar
    15     8     3   ar
    16    15    10    1
    17    14    12    1
    18    15    16    1
@<TRIPOS>MOLECULE
*****
 16 18 0 0 0
SMALL
GASTEIGER

@<TRIPOS>ATOM
      1 O          61.6194   86.0431   11.9830 O.3     1  UNL1       -0.4724
      2 CL         59.4042   88.9128    7.2020 Cl      1  UNL1       -0.0613
      3 C          59.9580   88.1954    8.3973 C.ar    1  UNL1        0.1386
      4 C          60.4353   86.7793    8.2674 C.ar    1  UNL1        0.0339
      5 C          60.9891   86.0619    9.4626 C.ar    1  UNL1        0.0410
      6 C          61.0656   86.7605   10.7878 C.ar    1  UNL1        0.1578
      7 C          60.5883   88.1766   10.9176 C.ar    1  UNL1        0.1366
      8 N          60.0345   88.8940    9.7224 N.ar    1  UNL1       -0.2293
      9 C          62.7842   85.1112   11.8252 C.3     1  UNL1        0.2210
     10 C          62.7113   83.7192   12.3792 C.3     1  UNL1        0.0983
     11 C          62.8454   82.4491   11.5925 C.3     1  UNL1        0.0209
     12 C          62.7086   81.2977   12.5442 C.3     1  UNL1        0.0172
     13 C          62.5362   80.3715   13.7113 C.3     1  UNL1        0.0171
     14 C          62.4899   81.8562   13.9190 C.3     1  UNL1        0.0541
     15 N          62.4916   83.3528   13.8171 N.3     1  UNL1       -0.2966
     16 H          63.2418   83.7380   14.3910 H       1  UNL1        0.1233
@<TRIPOS>BOND
     1     2     3    1
     2     3     4   ar
     3     4     5   ar
     4     5     6   ar
     5     6     1    1
     6     1     9    1
     7    10     9    1
     8    10    11    1
     9    12    11    1
    10    12    13    1
    11    14    13    1
    12    14    15    1
    13     6     7   ar
    14     7     8   ar
    15     8     3   ar
    16    15    10    1
    17    14    12    1
    18    15    16    1
@<TRIPOS>MOLECULE
*****
 16 18 0 0 0
SMALL
GASTEIGER

@<TRIPOS>ATOM
      1 O          63.8303   84.0180   12.7276 O.3     1  UNL1       -0.4724
      2 CL         62.6826   86.5694   18.0354 Cl      1  UNL1       -0.0613
      3 C          62.9695   85.9316   16.7085 C.ar    1  UNL1        0.1386
      4 C          64.1230   86.4125   15.8789 C.ar    1  UNL1        0.0339
      5 C          64.4099   85.7746   14.5520 C.ar    1  UNL1        0.0410
      6 C          63.5433   84.6558   14.0546 C.ar    1  UNL1        0.1578
      7 C          62.3899   84.1749   14.8841 C.ar    1  UNL1        0.1366
      8 N          62.1030   84.8128   16.2111 N.ar    1  UNL1       -0.2293
      9 C          62.7491   83.9217   11.6923 C.3     1  UNL1        0.2210
     10 C          62.2545   85.1609   11.0069 C.3     1  UNL1        0.0983
     11 C          62.5094   85.5396    9.5781 C.3     1  UNL1        0.0209
     12 C          61.8306   86.8517    9.3181 C.3     1  UNL1        0.0172
     13 C          61.0651   88.1410    9.3586 C.3     1  UNL1        0.0171
     14 C          61.1562   87.2840   10.5863 C.3     1  UNL1        0.0541
     15 N          61.4181   86.2390   11.6301 N.3     1  UNL1       -0.2966
     16 H          60.5350   85.8468   11.9565 H       1  UNL1        0.1233
@<TRIPOS>BOND
     1     2     3    1
     2     3     4   ar
     3     4     5   ar
     4     5     6   ar
     5     6     1    1
     6     1     9    1
     7    10     9    1
     8    10    11    1
     9    12    11    1
    10    12    13    1
    11    14    13    1
    12    14    15    1
    13     6     7   ar
    14     7     8   ar
    15     8     3   ar
    16    15    10    1
    17    14    12    1
    18    15    16    1
@<TRIPOS>MOLECULE
*****
 16 18 0 0 0
SMALL
GASTEIGER

@<TRIPOS>ATOM
      1 O          60.7739   87.2048   11.1387 O.3     1  UNL1       -0.4724
      2 CL         62.1193   84.5106    5.9492 Cl      1  UNL1       -0.0613
      3 C          61.7830   85.1841    7.2466 C.ar    1  UNL1        0.1386
      4 C          62.7960   85.2315    8.3517 C.ar    1  UNL1        0.0339
      5 C          62.4597   85.9051    9.6491 C.ar    1  UNL1        0.0410
      6 C          61.1103   86.5312    9.8413 C.ar    1  UNL1        0.1578
      7 C          60.0972   86.4838    8.7362 C.ar    1  UNL1        0.1366
      8 N          60.4336   85.8103    7.4388 N.ar    1  UNL1       -0.2293
      9 C          60.5954   88.6933   11.1868 C.3     1  UNL1        0.2210
     10 C          61.7568   89.5772   11.5332 C.3     1  UNL1        0.0983
     11 C          62.6432   90.2916   10.5565 C.3     1  UNL1        0.0209
     12 C          63.6699   91.0578   11.3367 C.3     1  UNL1        0.0172
     13 C          64.5497   91.7028   12.3662 C.3     1  UNL1        0.0171
     14 C          63.4180   90.8170   12.7957 C.3     1  UNL1        0.0541
     15 N          62.2356   89.9019   12.9172 N.3     1  UNL1       -0.2966
     16 H          61.4925   90.3642   13.4410 H       1  UNL1        0.1233
@<TRIPOS>BOND
     1     2     3    1
     2     3     4   ar
     3     4     5   ar
     4     5     6   ar
     5     6     1    1
     6     1     9    1
     7    10     9    1
     8    10    11    1
     9    12    11    1
    10    12    13    1
    11    14    13    1
    12    14    15    1
    13     6     7   ar
    14     7     8   ar
    15     8     3   ar
    16    15    10    1
    17    14    12    1
    18    15    16    1
@<TRIPOS>MOLECULE
*****
 16 18 0 0 0
SMALL
GASTEIGER

@<TRIPOS>ATOM
      1 O          62.3031   84.8352   15.6191 O.3     1  UNL1       -0.4724
      2 CL         63.0797   81.3154   10.8225 Cl      1  UNL1       -0.0613
      3 C          62.8855   82.1953   12.0216 C.ar    1  UNL1        0.1386
      4 C          62.5013   81.5922   13.3401 C.ar    1  UNL1        0.0339
      5 C          62.3071   82.4721   14.5393 C.ar    1  UNL1        0.0410
      6 C          62.4972   83.9552   14.4199 C.ar    1  UNL1        0.1578
      7 C          62.8815   84.5583   13.1014 C.ar    1  UNL1        0.1366
      8 N          63.0756   83.6784   11.9023 N.ar    1  UNL1       -0.2293
      9 C          63.4612   85.6071   16.1784 C.3     1  UNL1        0.2210
     10 C          63.6262   87.0598   15.8432 C.3     1  UNL1        0.0983
     11 C          64.3883   87.6144   14.6763 C.3     1  UNL1        0.0209
     12 C          64.2912   89.1103   14.7279 C.3     1  UNL1        0.0172
     13 C          64.0231   90.5534   15.0371 C.3     1  UNL1        0.0171
     14 C          63.4691   89.4803   15.9268 C.3     1  UNL1        0.0541
     15 N          63.0581   88.2130   16.6161 N.3     1  UNL1       -0.2966
     16 H          62.0406   88.1462   16.6397 H       1  UNL1        0.1233
@<TRIPOS>BOND
     1     2     3    1
     2     3     4   ar
     3     4     5   ar
     4     5     6   ar
     5     6     1    1
     6     1     9    1
     7    10     9    1
     8    10    11    1
     9    12    11    1
    10    12    13    1
    11    14    13    1
    12    14    15    1
    13     6     7   ar
    14     7     8   ar
    15     8     3   ar
    16    15    10    1
    17    14    12    1
    18    15    16    1
@<TRIPOS>MOLECULE
*****
 16 18 0 0 0
SMALL
GASTEIGER

@<TRIPOS>ATOM
      1 O          62.9304   85.9033   12.4304 O.3     1  UNL1       -0.4724
      2 CL         62.3062   80.0386   13.5327 Cl      1  UNL1       -0.0613
      3 C          62.4622   81.5048   13.2571 C.ar    1  UNL1        0.1386
      4 C          62.7172   81.9820   11.8581 C.ar    1  UNL1        0.0339
      5 C          62.8733   83.4482   11.5825 C.ar    1  UNL1        0.0410
      6 C          62.7744   84.4371   12.7059 C.ar    1  UNL1        0.1578
      7 C          62.5194   83.9599   14.1049 C.ar    1  UNL1        0.1366
      8 N          62.3633   82.4937   14.3805 N.ar    1  UNL1       -0.2293
      9 C          62.3937   86.4886   11.1578 C.3     1  UNL1        0.2210
     10 C          61.5483   87.7269   11.1999 C.3     1  UNL1        0.0983
     11 C          61.9647   89.0946   10.7461 C.3     1  UNL1        0.0209
     12 C          60.8118   90.0280   10.9688 C.3     1  UNL1        0.0172
     13 C          59.5151   90.7049   11.3009 C.3     1  UNL1        0.0171
     14 C          59.6828   89.2371   11.5603 C.3     1  UNL1        0.0541
     15 N          60.1379   87.8149   11.7031 N.3     1  UNL1       -0.2966
     16 H          59.5355   87.2019   11.1538 H       1  UNL1        0.1233
@<TRIPOS>BOND
     1     2     3    1
     2     3     4   ar
     3     4     5   ar
     4     5     6   ar
     5     6     1    1
     6     1     9    1
     7    10     9    1
     8    10    11    1
     9    12    11    1
    10    12    13    1
    11    14    13    1
    12    14    15    1
    13     6     7   ar
    14     7     8   ar
    15     8     3   ar
    16    15    10    1
    17    14    12    1
    18    15    16    1
