@<TRIPOS>MOLECULE
*****
 34 39 0 0 0
SMALL
GASTEIGER

@<TRIPOS>ATOM
      1 N          56.1547   95.0525   -1.7288 N.pl3   1  UNL1       -0.3063
      2 C          57.0978   96.1115   -1.2400 C.3     1  UNL1        0.0912
      3 C          58.3552   95.7220   -0.5209 C.3     1  UNL1        0.0258
      4 C          58.6695   94.2735   -0.2906 C.3     1  UNL1        0.0256
      5 C          59.8154   95.0217    0.3235 C.2     1  UNL1       -0.0304
      6 C          60.4479   93.7226    0.7265 C.2     1  UNL1       -0.0219
      7 C          59.3020   92.9744    0.1124 C.3     1  UNL1        0.0303
      8 C          57.7264   93.2145   -0.7794 C.3     1  UNL1        0.0258
      9 C          56.4690   93.6040   -1.4985 C.3     1  UNL1        0.0912
     10 CA         52.3823   96.2209   -3.8862 C.ar    1  UNL1        0.0953
     11 C          52.3718   96.0500   -2.3960 C.ar    1  UNL1        0.0216
     12 C          53.6293   95.6605   -1.6769 C.ar    1  UNL1        0.0177
     13 C          54.8972   95.4419   -2.4479 C.ar    1  UNL1        0.0673
     14 C          54.9077   95.6129   -3.9381 C.ar    1  UNL1        0.1133
     15 N          53.6503   96.0023   -4.6573 N.ar    1  UNL1       -0.2414
     16 O          49.8600   96.8413   -3.8330 O.co2   1  UNL1       -0.5430
     17 C          51.1249   96.6103   -4.6054 C.2     1  UNL1        0.0905
     18 OXT        51.1325   96.7688   -6.0969 O.co2   1  UNL1       -0.5430
     19 C          61.7053   93.3331    1.4456 C.ar    1  UNL1        0.0495
     20 C          63.1060   93.5789    0.9686 C.ar    1  UNL1        0.1238
     21 N          64.0492   93.0271    1.9961 N.ar    1  UNL1       -0.0773
     22 O          63.2314   92.4404    3.1083 O.2     1  UNL1       -0.3578
     23 C          61.7828   92.6295    2.7680 C.ar    1  UNL1        0.1535
     24 C          63.4952   94.2573   -0.3114 C.ar    1  UNL1        0.0420
     25 C          64.2611   95.5466   -0.2742 C.ar    1  UNL1        0.0600
     26 CL         64.6377   96.1573    1.0431 Cl      1  UNL1       -0.0822
     27 C          64.6503   96.2250   -1.5541 C.ar    1  UNL1        0.0115
     28 C          64.2736   95.6142   -2.8713 C.ar    1  UNL1        0.0017
     29 C          63.5078   94.3250   -2.9085 C.ar    1  UNL1        0.0115
     30 C          63.1186   93.6466   -1.6286 C.ar    1  UNL1        0.0600
     31 CL         62.3527   92.3574   -1.6659 Cl      1  UNL1       -0.0822
     32 C          60.6164   92.1918    3.6035 C.3     1  UNL1        0.0602
     33 C          59.1709   92.3178    3.9840 C.3     1  UNL1        0.0081
     34 C          60.0417   91.3075    4.6703 C.3     1  UNL1        0.0081
@<TRIPOS>UNITY_ATOM_ATTR
16 1
charge -1
@<TRIPOS>BOND
     1    16    17   ar
     2    17    18   ar
     3    17    10    1
     4    10    11   ar
     5    11    12   ar
     6    12    13   ar
     7    13     1    1
     8     1     2    1
     9     2     3    1
    10     3     4    1
    11     4     5    1
    12     5     6    2
    13     6    19    1
    14    19    20   ar
    15    20    24    1
    16    24    25   ar
    17    25    26    1
    18    25    27   ar
    19    27    28   ar
    20    28    29   ar
    21    29    30   ar
    22    30    31    1
    23    20    21   ar
    24    21    22   ar
    25    22    23   ar
    26    23    32    1
    27    32    33    1
    28    33    34    1
    29     6     7    1
    30     4     8    1
    31     8     9    1
    32    13    14   ar
    33    14    15   ar
    34    15    10   ar
    35     9     1    1
    36     7     4    1
    37    23    19   ar
    38    34    32    1
    39    30    24   ar
@<TRIPOS>MOLECULE
*****
 34 39 0 0 0
SMALL
GASTEIGER

@<TRIPOS>ATOM
      1 N          56.7527   95.1212   -2.0483 N.pl3   1  UNL1       -0.3063
      2 C          57.4874   96.0899   -1.1697 C.3     1  UNL1        0.0912
      3 C          58.8642   95.7584   -0.6752 C.3     1  UNL1        0.0258
      4 C          59.5063   94.4583   -1.0593 C.3     1  UNL1        0.0256
      5 C          60.5177   95.1502   -0.1942 C.2     1  UNL1       -0.0304
      6 C          61.4535   93.9896   -0.3600 C.2     1  UNL1       -0.0219
      7 C          60.4420   93.2978   -1.2251 C.3     1  UNL1        0.0303
      8 C          58.7715   93.4897   -1.9379 C.3     1  UNL1        0.0258
      9 C          57.3948   93.8211   -2.4323 C.3     1  UNL1        0.0912
     10 CA         52.6222   96.1155   -3.5318 C.ar    1  UNL1        0.0953
     11 C          52.8732   95.9581   -2.0614 C.ar    1  UNL1        0.0216
     12 C          54.2501   95.6267   -1.5669 C.ar    1  UNL1        0.0177
     13 C          55.3758   95.4527   -2.5428 C.ar    1  UNL1        0.0673
     14 C          55.1248   95.6101   -4.0132 C.ar    1  UNL1        0.1133
     15 N          53.7480   95.9415   -4.5078 N.ar    1  UNL1       -0.2414
     16 O          50.9530   96.4313   -5.4975 O.co2   1  UNL1       -0.5430
     17 C          51.2454   96.4469   -4.0264 C.2     1  UNL1        0.0905
     18 OXT        50.1611   96.7939   -3.0498 O.co2   1  UNL1       -0.5430
     19 C          62.8302   93.6581    0.1345 C.ar    1  UNL1        0.0495
     20 C          64.1184   93.9740   -0.5660 C.ar    1  UNL1        0.1238
     21 N          65.2449   93.4637    0.2829 N.ar    1  UNL1       -0.0773
     22 O          64.6529   92.8325    1.5080 O.2     1  UNL1       -0.3578
     23 C          63.1606   92.9526    1.4163 C.ar    1  UNL1        0.1535
     24 C          64.2560   94.6767   -1.8840 C.ar    1  UNL1        0.0420
     25 C          63.9739   93.9401   -3.1599 C.ar    1  UNL1        0.0600
     26 CL         63.5543   92.5006   -3.1177 Cl      1  UNL1       -0.0822
     27 C          64.1115   94.6429   -4.4779 C.ar    1  UNL1        0.0115
     28 C          64.5312   96.0824   -4.5201 C.ar    1  UNL1        0.0017
     29 C          64.8132   96.8190   -3.2442 C.ar    1  UNL1        0.0115
     30 C          64.6756   96.1162   -1.9262 C.ar    1  UNL1        0.0600
     31 CL         64.9577   96.8530   -0.6504 Cl      1  UNL1       -0.0822
     32 C          62.1720   92.4547    2.4288 C.3     1  UNL1        0.0602
     33 C          60.7746   92.4220    2.9730 C.3     1  UNL1        0.0081
     34 C          61.8574   91.6250    3.6382 C.3     1  UNL1        0.0081
@<TRIPOS>UNITY_ATOM_ATTR
16 1
charge -1
@<TRIPOS>BOND
     1    16    17   ar
     2    17    18   ar
     3    17    10    1
     4    10    11   ar
     5    11    12   ar
     6    12    13   ar
     7    13     1    1
     8     1     2    1
     9     2     3    1
    10     3     4    1
    11     4     5    1
    12     5     6    2
    13     6    19    1
    14    19    20   ar
    15    20    24    1
    16    24    25   ar
    17    25    26    1
    18    25    27   ar
    19    27    28   ar
    20    28    29   ar
    21    29    30   ar
    22    30    31    1
    23    20    21   ar
    24    21    22   ar
    25    22    23   ar
    26    23    32    1
    27    32    33    1
    28    33    34    1
    29     6     7    1
    30     4     8    1
    31     8     9    1
    32    13    14   ar
    33    14    15   ar
    34    15    10   ar
    35     9     1    1
    36     7     4    1
    37    23    19   ar
    38    34    32    1
    39    30    24   ar
@<TRIPOS>MOLECULE
*****
 34 39 0 0 0
SMALL
GASTEIGER

@<TRIPOS>ATOM
      1 N          60.6221   88.1931    8.9460 N.pl3   1  UNL1       -0.3063
      2 C          61.5292   88.8627    9.9353 C.3     1  UNL1        0.0912
      3 C          62.1911   88.0550   11.0121 C.3     1  UNL1        0.0258
      4 C          61.9458   86.5778   11.0996 C.3     1  UNL1        0.0256
      5 C          62.8843   86.8831   12.2292 C.2     1  UNL1       -0.0304
      6 C          62.8820   85.4356   12.6225 C.2     1  UNL1       -0.0219
      7 C          61.9435   85.1303   11.4929 C.3     1  UNL1        0.0303
      8 C          61.0387   85.9082   10.1103 C.3     1  UNL1        0.0258
      9 C          60.3768   86.7158    9.0335 C.3     1  UNL1        0.0912
     10 CA         58.6362   90.6159    5.7154 C.ar    1  UNL1        0.0953
     11 C          60.0534   90.9097    6.1092 C.ar    1  UNL1        0.0216
     12 C          60.7154   90.1021    7.1861 C.ar    1  UNL1        0.0177
     13 C          59.9601   89.0007    7.8691 C.ar    1  UNL1        0.0673
     14 C          58.5429   88.7069    7.4752 C.ar    1  UNL1        0.1133
     15 N          57.8809   89.5145    6.3984 N.ar    1  UNL1       -0.2414
     16 O          58.8062   92.1000    3.5897 O.co2   1  UNL1       -0.5430
     17 C          57.9742   91.4235    4.6386 C.2     1  UNL1        0.0905
     18 OXT        56.4802   91.5545    4.6106 O.co2   1  UNL1       -0.5430
     19 C          63.5439   84.6279   13.6993 C.ar    1  UNL1        0.0495
     20 C          63.8603   83.1632   13.6344 C.ar    1  UNL1        0.1238
     21 N          64.5176   82.7733   14.9251 N.ar    1  UNL1       -0.0773
     22 O          64.6074   83.9970   15.7878 O.2     1  UNL1       -0.3578
     23 C          64.0056   85.1433   15.0302 C.ar    1  UNL1        0.1535
     24 C          63.5704   82.2489   12.4812 C.ar    1  UNL1        0.0420
     25 C          64.1579   82.5350   11.1309 C.ar    1  UNL1        0.0600
     26 CL         65.0354   83.7355   10.9340 Cl      1  UNL1       -0.0822
     27 C          63.8680   81.6206    9.9777 C.ar    1  UNL1        0.0115
     28 C          62.9905   80.4201   10.1747 C.ar    1  UNL1        0.0017
     29 C          62.4030   80.1340   11.5249 C.ar    1  UNL1        0.0115
     30 C          62.6929   81.0483   12.6781 C.ar    1  UNL1        0.0600
     31 CL         62.1054   80.7621   14.0282 Cl      1  UNL1       -0.0822
     32 C          63.8864   86.5569   15.5179 C.3     1  UNL1        0.0602
     33 C          64.1639   88.0202   15.3400 C.3     1  UNL1        0.0081
     34 C          63.4026   87.5418   16.5406 C.3     1  UNL1        0.0081
@<TRIPOS>UNITY_ATOM_ATTR
16 1
charge -1
@<TRIPOS>BOND
     1    16    17   ar
     2    17    18   ar
     3    17    10    1
     4    10    11   ar
     5    11    12   ar
     6    12    13   ar
     7    13     1    1
     8     1     2    1
     9     2     3    1
    10     3     4    1
    11     4     5    1
    12     5     6    2
    13     6    19    1
    14    19    20   ar
    15    20    24    1
    16    24    25   ar
    17    25    26    1
    18    25    27   ar
    19    27    28   ar
    20    28    29   ar
    21    29    30   ar
    22    30    31    1
    23    20    21   ar
    24    21    22   ar
    25    22    23   ar
    26    23    32    1
    27    32    33    1
    28    33    34    1
    29     6     7    1
    30     4     8    1
    31     8     9    1
    32    13    14   ar
    33    14    15   ar
    34    15    10   ar
    35     9     1    1
    36     7     4    1
    37    23    19   ar
    38    34    32    1
    39    30    24   ar
@<TRIPOS>MOLECULE
*****
 34 39 0 0 0
SMALL
GASTEIGER

@<TRIPOS>ATOM
      1 N          60.6136   88.2040    8.9398 N.pl3   1  UNL1       -0.3063
      2 C          61.5205   88.8754    9.9280 C.3     1  UNL1        0.0912
      3 C          62.1841   88.0693   11.0050 C.3     1  UNL1        0.0258
      4 C          61.9407   86.5918   11.0937 C.3     1  UNL1        0.0256
      5 C          62.8795   86.8991   12.2225 C.2     1  UNL1       -0.0304
      6 C          62.8792   85.4518   12.6168 C.2     1  UNL1       -0.0219
      7 C          61.9404   85.1446   11.4880 C.3     1  UNL1        0.0303
      8 C          61.0338   85.9205   10.1054 C.3     1  UNL1        0.0258
      9 C          60.3703   86.7266    9.0284 C.3     1  UNL1        0.0912
     10 CA         58.6229   90.6223    5.7087 C.ar    1  UNL1        0.0953
     11 C          60.0393   90.9195    6.1030 C.ar    1  UNL1        0.0216
     12 C          60.7029   90.1134    7.1800 C.ar    1  UNL1        0.0177
     13 C          59.9501   89.0101    7.8627 C.ar    1  UNL1        0.0673
     14 C          58.5336   88.7130    7.4685 C.ar    1  UNL1        0.1133
     15 N          57.8700   89.5190    6.3915 N.ar    1  UNL1       -0.2414
     16 O          56.4637   91.5343    4.5880 O.co2   1  UNL1       -0.5430
     17 C          57.9593   91.4283    4.6318 C.2     1  UNL1        0.0905
     18 OXT        58.7913   92.1284    3.5986 O.co2   1  UNL1       -0.5430
     19 C          63.5427   84.6457   13.6938 C.ar    1  UNL1        0.0495
     20 C          63.8593   83.1809   13.6303 C.ar    1  UNL1        0.1238
     21 N          64.5184   82.7928   14.9206 N.ar    1  UNL1       -0.0773
     22 O          64.6092   84.0177   15.7815 O.2     1  UNL1       -0.3578
     23 C          64.0061   85.1629   15.0233 C.ar    1  UNL1        0.1535
     24 C          63.5679   82.2650   12.4787 C.ar    1  UNL1        0.0420
     25 C          62.6889   81.0659   12.6777 C.ar    1  UNL1        0.0600
     26 CL         62.1012   80.7829   14.0285 Cl      1  UNL1       -0.0822
     27 C          62.3975   80.1500   11.5261 C.ar    1  UNL1        0.0115
     28 C          62.9852   80.4332   10.1754 C.ar    1  UNL1        0.0017
     29 C          63.8643   81.6322    9.9764 C.ar    1  UNL1        0.0115
     30 C          64.1556   82.5481   11.1280 C.ar    1  UNL1        0.0600
     31 CL         65.0347   83.7471   10.9288 Cl      1  UNL1       -0.0822
     32 C          63.8874   86.5771   15.5093 C.3     1  UNL1        0.0602
     33 C          64.1680   88.0398   15.3312 C.3     1  UNL1        0.0081
     34 C          63.4012   87.5637   16.5293 C.3     1  UNL1        0.0081
@<TRIPOS>UNITY_ATOM_ATTR
16 1
charge -1
@<TRIPOS>BOND
     1    16    17   ar
     2    17    18   ar
     3    17    10    1
     4    10    11   ar
     5    11    12   ar
     6    12    13   ar
     7    13     1    1
     8     1     2    1
     9     2     3    1
    10     3     4    1
    11     4     5    1
    12     5     6    2
    13     6    19    1
    14    19    20   ar
    15    20    24    1
    16    24    25   ar
    17    25    26    1
    18    25    27   ar
    19    27    28   ar
    20    28    29   ar
    21    29    30   ar
    22    30    31    1
    23    20    21   ar
    24    21    22   ar
    25    22    23   ar
    26    23    32    1
    27    32    33    1
    28    33    34    1
    29     6     7    1
    30     4     8    1
    31     8     9    1
    32    13    14   ar
    33    14    15   ar
    34    15    10   ar
    35     9     1    1
    36     7     4    1
    37    23    19   ar
    38    34    32    1
    39    30    24   ar
@<TRIPOS>MOLECULE
*****
 34 39 0 0 0
SMALL
GASTEIGER

@<TRIPOS>ATOM
      1 N          55.5890   95.6570   -4.1626 N.pl3   1  UNL1       -0.3063
      2 C          56.5478   96.8003   -4.0092 C.3     1  UNL1        0.0912
      3 C          57.9826   96.5344   -3.6617 C.3     1  UNL1        0.0258
      4 C          58.4585   95.1252   -3.4677 C.3     1  UNL1        0.0256
      5 C          59.6702   95.9793   -3.2385 C.2     1  UNL1       -0.0304
      6 C          60.4877   94.7492   -2.9762 C.2     1  UNL1       -0.0219
      7 C          59.2760   93.8952   -3.2054 C.3     1  UNL1        0.0303
      8 C          57.4998   93.9819   -3.6211 C.3     1  UNL1        0.0258
      9 C          56.0650   94.2478   -3.9686 C.3     1  UNL1        0.0912
     10 CA         51.2847   96.4545   -5.2051 C.ar    1  UNL1        0.0953
     11 C          51.7206   96.4515   -3.7699 C.ar    1  UNL1        0.0216
     12 C          53.1554   96.1856   -3.4224 C.ar    1  UNL1        0.0177
     13 C          54.1542   95.9229   -4.5101 C.ar    1  UNL1        0.0673
     14 C          53.7183   95.9259   -5.9454 C.ar    1  UNL1        0.1133
     15 N          52.2836   96.1917   -6.2929 N.ar    1  UNL1       -0.2414
     16 O          48.8263   96.8510   -4.4640 O.co2   1  UNL1       -0.5430
     17 C          49.8499   96.7204   -5.5527 C.2     1  UNL1        0.0905
     18 OXT        49.4388   96.8556   -6.9888 O.co2   1  UNL1       -0.5430
     19 C          61.9224   94.4833   -2.6287 C.ar    1  UNL1        0.0495
     20 C          62.4768   94.3077   -1.2461 C.ar    1  UNL1        0.1238
     21 N          63.9517   94.0623   -1.3658 N.ar    1  UNL1       -0.0773
     22 O          64.3089   94.0861   -2.8224 O.2     1  UNL1       -0.3578
     23 C          63.0547   94.3464   -3.6030 C.ar    1  UNL1        0.1535
     24 C          61.6937   94.3672    0.0319 C.ar    1  UNL1        0.0420
     25 C          61.6529   95.6378    0.8282 C.ar    1  UNL1        0.0600
     26 CL         62.3953   96.8489    0.3464 Cl      1  UNL1       -0.0822
     27 C          60.8699   95.6972    2.1062 C.ar    1  UNL1        0.0115
     28 C          60.1275   94.4860    2.5879 C.ar    1  UNL1        0.0017
     29 C          60.1683   93.2155    1.7916 C.ar    1  UNL1        0.0115
     30 C          60.9513   93.1561    0.5136 C.ar    1  UNL1        0.0600
     31 CL         60.9920   91.8855   -0.2826 Cl      1  UNL1       -0.0822
     32 C          62.9511   94.4513   -5.0958 C.3     1  UNL1        0.0602
     33 C          62.9496   95.2854   -6.3424 C.3     1  UNL1        0.0081
     34 C          62.7730   93.7987   -6.4346 C.3     1  UNL1        0.0081
@<TRIPOS>UNITY_ATOM_ATTR
16 1
charge -1
@<TRIPOS>BOND
     1    16    17   ar
     2    17    18   ar
     3    17    10    1
     4    10    11   ar
     5    11    12   ar
     6    12    13   ar
     7    13     1    1
     8     1     2    1
     9     2     3    1
    10     3     4    1
    11     4     5    1
    12     5     6    2
    13     6    19    1
    14    19    20   ar
    15    20    24    1
    16    24    25   ar
    17    25    26    1
    18    25    27   ar
    19    27    28   ar
    20    28    29   ar
    21    29    30   ar
    22    30    31    1
    23    20    21   ar
    24    21    22   ar
    25    22    23   ar
    26    23    32    1
    27    32    33    1
    28    33    34    1
    29     6     7    1
    30     4     8    1
    31     8     9    1
    32    13    14   ar
    33    14    15   ar
    34    15    10   ar
    35     9     1    1
    36     7     4    1
    37    23    19   ar
    38    34    32    1
    39    30    24   ar
@<TRIPOS>MOLECULE
*****
 34 39 0 0 0
SMALL
GASTEIGER

@<TRIPOS>ATOM
      1 N          57.0916   95.2421   -2.8908 N.pl3   1  UNL1       -0.3063
      2 C          57.9974   96.3927   -2.5661 C.3     1  UNL1        0.0912
      3 C          59.3214   96.1422   -1.9072 C.3     1  UNL1        0.0258
      4 C          59.7396   94.7409   -1.5731 C.3     1  UNL1        0.0256
      5 C          60.8749   95.6055   -1.1110 C.2     1  UNL1       -0.0304
      6 C          61.6121   94.3865   -0.6412 C.2     1  UNL1       -0.0219
      7 C          60.4768   93.5220   -1.1033 C.3     1  UNL1        0.0303
      8 C          58.8338   93.5903   -1.8978 C.3     1  UNL1        0.0258
      9 C          57.5098   93.8409   -2.5567 C.3     1  UNL1        0.0912
     10 CA         53.1194   95.9937   -4.8676 C.ar    1  UNL1        0.0953
     11 C          53.2815   96.2317   -3.3955 C.ar    1  UNL1        0.0216
     12 C          54.6056   95.9811   -2.7366 C.ar    1  UNL1        0.0177
     13 C          55.7675   95.4927   -3.5498 C.ar    1  UNL1        0.0673
     14 C          55.6054   95.2547   -5.0219 C.ar    1  UNL1        0.1133
     15 N          54.2814   95.5052   -5.6808 N.ar    1  UNL1       -0.2414
     16 O          50.5383   96.2432   -4.7083 O.co2   1  UNL1       -0.5430
     17 C          51.7954   96.2443   -5.5265 C.2     1  UNL1        0.0905
     18 OXT        51.7286   96.4959   -7.0037 O.co2   1  UNL1       -0.5430
     19 C          62.9361   94.1360    0.0177 C.ar    1  UNL1        0.0495
     20 C          63.1446   93.5586    1.3862 C.ar    1  UNL1        0.1238
     21 N          64.6215   93.4846    1.6381 N.ar    1  UNL1       -0.0773
     22 O          65.3257   94.0162    0.4251 O.2     1  UNL1       -0.3578
     23 C          64.2841   94.4188   -0.5764 C.ar    1  UNL1        0.1535
     24 C          62.0657   93.1304    2.3363 C.ar    1  UNL1        0.0420
     25 C          62.1695   91.8120    3.0443 C.ar    1  UNL1        0.0600
     26 CL         63.3522   90.9219    2.8021 Cl      1  UNL1       -0.0822
     27 C          61.0905   91.3839    3.9943 C.ar    1  UNL1        0.0115
     28 C          59.9078   92.2742    4.2364 C.ar    1  UNL1        0.0017
     29 C          59.8040   93.5925    3.5285 C.ar    1  UNL1        0.0115
     30 C          60.8829   94.0206    2.5784 C.ar    1  UNL1        0.0600
     31 CL         60.7791   95.3390    1.8705 Cl      1  UNL1       -0.0822
     32 C          64.5448   95.0018   -1.9337 C.3     1  UNL1        0.0602
     33 C          64.4293   94.9193   -3.4270 C.3     1  UNL1        0.0081
     34 C          65.1116   96.0942   -2.7913 C.3     1  UNL1        0.0081
@<TRIPOS>UNITY_ATOM_ATTR
16 1
charge -1
@<TRIPOS>BOND
     1    16    17   ar
     2    17    18   ar
     3    17    10    1
     4    10    11   ar
     5    11    12   ar
     6    12    13   ar
     7    13     1    1
     8     1     2    1
     9     2     3    1
    10     3     4    1
    11     4     5    1
    12     5     6    2
    13     6    19    1
    14    19    20   ar
    15    20    24    1
    16    24    25   ar
    17    25    26    1
    18    25    27   ar
    19    27    28   ar
    20    28    29   ar
    21    29    30   ar
    22    30    31    1
    23    20    21   ar
    24    21    22   ar
    25    22    23   ar
    26    23    32    1
    27    32    33    1
    28    33    34    1
    29     6     7    1
    30     4     8    1
    31     8     9    1
    32    13    14   ar
    33    14    15   ar
    34    15    10   ar
    35     9     1    1
    36     7     4    1
    37    23    19   ar
    38    34    32    1
    39    30    24   ar
@<TRIPOS>MOLECULE
*****
 34 39 0 0 0
SMALL
GASTEIGER

@<TRIPOS>ATOM
      1 N          72.2231   78.1733   11.1808 N.pl3   1  UNL1       -0.3063
      2 C          71.0221   77.7605   11.9790 C.3     1  UNL1        0.0912
      3 C          71.0116   76.4393   12.6892 C.3     1  UNL1        0.0258
      4 C          72.2019   75.5309   12.6011 C.3     1  UNL1        0.0256
      5 C          71.2182   74.7990   13.4651 C.2     1  UNL1       -0.0304
      6 C          72.1869   73.6624   13.6055 C.2     1  UNL1       -0.0219
      7 C          73.1707   74.3943   12.7415 C.3     1  UNL1        0.0303
      8 C          73.4029   75.9437   11.8029 C.3     1  UNL1        0.0258
      9 C          73.4135   77.2649   11.0928 C.3     1  UNL1        0.0912
     10 CA         72.2550   82.1369    9.0503 C.ar    1  UNL1        0.0953
     11 C          72.3538   80.8626    8.2652 C.ar    1  UNL1        0.0216
     12 C          72.3431   79.5414    8.9754 C.ar    1  UNL1        0.0177
     13 C          72.2338   79.4945   10.4706 C.ar    1  UNL1        0.0673
     14 C          72.1351   80.7688   11.2558 C.ar    1  UNL1        0.1133
     15 N          72.1457   82.0900   10.5456 N.ar    1  UNL1       -0.2414
     16 O          71.5525   83.6109    7.0295 O.co2   1  UNL1       -0.5430
     17 C          72.2657   83.4581    8.3402 C.2     1  UNL1        0.0905
     18 OXT        72.9895   84.6265    8.9408 O.co2   1  UNL1       -0.5430
     19 C          72.1763   72.3412   14.3156 C.ar    1  UNL1        0.0495
     20 C          71.7540   71.0276   13.7276 C.ar    1  UNL1        0.1238
     21 N          71.9029   69.9762   14.7871 N.ar    1  UNL1       -0.0773
     22 O          72.4173   70.6401   16.0299 O.2     1  UNL1       -0.3578
     23 C          72.5863   72.1018   15.7385 C.ar    1  UNL1        0.1535
     24 C          71.2681   70.8044   12.3262 C.ar    1  UNL1        0.0420
     25 C          69.8703   70.3160   12.0858 C.ar    1  UNL1        0.0600
     26 CL         68.9585   70.0508   13.2469 Cl      1  UNL1       -0.0822
     27 C          69.3843   70.0928   10.6843 C.ar    1  UNL1        0.0115
     28 C          70.2962   70.3581    9.5232 C.ar    1  UNL1        0.0017
     29 C          71.6939   70.8465    9.7636 C.ar    1  UNL1        0.0115
     30 C          72.1799   71.0696   11.1650 C.ar    1  UNL1        0.0600
     31 CL         73.5776   71.5581   11.4053 Cl      1  UNL1       -0.0822
     32 C          73.0788   73.1415   16.7011 C.3     1  UNL1        0.0602
     33 C          73.5263   74.5459   16.9796 C.3     1  UNL1        0.0081
     34 C          73.4843   73.5380   18.0898 C.3     1  UNL1        0.0081
@<TRIPOS>UNITY_ATOM_ATTR
16 1
charge -1
@<TRIPOS>BOND
     1    16    17   ar
     2    17    18   ar
     3    17    10    1
     4    10    11   ar
     5    11    12   ar
     6    12    13   ar
     7    13     1    1
     8     1     2    1
     9     2     3    1
    10     3     4    1
    11     4     5    1
    12     5     6    2
    13     6    19    1
    14    19    20   ar
    15    20    24    1
    16    24    25   ar
    17    25    26    1
    18    25    27   ar
    19    27    28   ar
    20    28    29   ar
    21    29    30   ar
    22    30    31    1
    23    20    21   ar
    24    21    22   ar
    25    22    23   ar
    26    23    32    1
    27    32    33    1
    28    33    34    1
    29     6     7    1
    30     4     8    1
    31     8     9    1
    32    13    14   ar
    33    14    15   ar
    34    15    10   ar
    35     9     1    1
    36     7     4    1
    37    23    19   ar
    38    34    32    1
    39    30    24   ar
