@<TRIPOS>MOLECULE
*****
 41 44 0 0 0
SMALL
GASTEIGER

@<TRIPOS>ATOM
      1 C          65.4478   90.8212   14.1201 C.ar    1  UNL1        0.0053
      2 C          65.0923   89.5730   14.8721 C.ar    1  UNL1        0.0033
      3 C          64.1331   88.5858   14.2760 C.ar    1  UNL1        0.0382
      4 C          63.5294   88.8469   12.9279 C.ar    1  UNL1        0.1529
      5 C          63.8849   90.0951   12.1759 C.ar    1  UNL1        0.0882
      6 C          64.8441   91.0823   12.7720 C.ar    1  UNL1        0.0181
      7 N          63.2812   90.3562   10.8278 N.am    1  UNL1       -0.2512
      8 C          62.3220   89.3690   10.2317 C.2     1  UNL1        0.2698
      9 O          61.7183   89.6301    8.8836 O.2     1  UNL1       -0.2704
     10 C          61.9665   88.1207   10.9836 C.3     1  UNL1        0.2199
     11 C          61.3238   86.8044   11.3064 C.3     1  UNL1        0.0579
     12 O          62.5702   87.8597   12.3318 O.3     1  UNL1       -0.4686
     13 C          67.7359   92.0508   14.0639 C.ar    1  UNL1        0.0645
     14 N          68.6951   93.0380   14.6600 N.ar    1  UNL1       -0.2183
     15 C          68.3255   93.7829   15.9085 C.ar    1  UNL1        0.2145
     16 N          69.2847   94.7701   16.5045 N.pl3   1  UNL1       -0.3274
     17 N          66.9967   93.5406   16.5608 N.ar    1  UNL1       -0.1995
     18 C          66.0375   92.5533   15.9647 C.ar    1  UNL1        0.1293
     19 N          64.7087   92.3110   16.6170 N.pl3   1  UNL1       -0.3425
     20 C          66.4071   91.8085   14.7163 C.ar    1  UNL1        0.0449
     21 H          70.1569   94.9291   16.0763 H       1  UNL1        0.1452
     22 H          69.0422   95.2590   17.3239 H       1  UNL1        0.1452
     23 H          64.4661   92.7999   17.4364 H       1  UNL1        0.1437
     24 H          64.0791   91.6631   16.2258 H       1  UNL1        0.1437
     25 C          68.3141   92.0519   11.5310 C.3     1  UNL1        0.0067
     26 C          68.1054   91.3059   12.8155 C.3     1  UNL1        0.0460
     27 C          61.1396   87.9247    9.7477 C.ar    1  UNL1        0.0264
     28 C          60.2914   89.0469    9.2269 C.ar    1  UNL1        0.0293
     29 C          59.4645   88.8507    7.9908 C.ar    1  UNL1        0.1422
     30 F          58.6164   89.9731    7.4700 F       1  UNL1       -0.2041
     31 C          59.4858   87.5325    7.2756 C.ar    1  UNL1        0.0592
     32 C          60.3339   86.4103    7.7963 C.ar    1  UNL1        0.1422
     33 F          60.3552   85.0920    7.0811 F       1  UNL1       -0.2041
     34 C          61.1609   86.6063    9.0324 C.ar    1  UNL1        0.0293
     35 C          63.6367   91.6044   10.0758 C.3     1  UNL1        0.1196
     36 C          64.8626   92.3829   10.4516 C.3     1  UNL1        0.1113
     37 N          65.0453   93.7837    9.9470 N.am    1  UNL1       -0.3026
     38 C          65.6788   94.8209   10.8263 C.2     1  UNL1        0.2230
     39 C          65.8616   96.2216   10.3218 C.3     1  UNL1        0.0946
     40 O          66.1296   94.4572   12.2100 O.2     1  UNL1       -0.2751
     41 H          64.7495   94.0224    9.0389 H       1  UNL1        0.1495
@<TRIPOS>BOND
     1    25    26    1
     2    26    13    1
     3    13    14   ar
     4    14    15   ar
     5    15    16    1
     6    15    17   ar
     7    17    18   ar
     8    18    19    1
     9    18    20   ar
    10    20     1    1
    11     1     2   ar
    12     2     3   ar
    13     3     4   ar
    14     4     5   ar
    15     5     6   ar
    16     5     7    1
    17     7    35    1
    18    35    36    1
    19    36    37    1
    20    37    38   am
    21    38    39    1
    22    38    40    2
    23     7     8   am
    24     8     9    2
    25     8    10    1
    26    10    11    1
    27    10    27    1
    28    27    28   ar
    29    28    29   ar
    30    29    30    1
    31    29    31   ar
    32    31    32   ar
    33    32    33    1
    34    32    34   ar
    35    10    12    1
    36    20    13   ar
    37     6     1   ar
    38    34    27   ar
    39    12     4    1
    40    16    21    1
    41    16    22    1
    42    19    23    1
    43    19    24    1
    44    37    41    1
@<TRIPOS>MOLECULE
*****
 41 44 0 0 0
SMALL
GASTEIGER

@<TRIPOS>ATOM
      1 C          64.2142   89.3488   13.1888 C.ar    1  UNL1        0.0053
      2 C          64.5411   89.1260   14.6356 C.ar    1  UNL1        0.0033
      3 C          64.3200   87.7781   15.2555 C.ar    1  UNL1        0.0382
      4 C          63.7720   86.6530   14.4284 C.ar    1  UNL1        0.1529
      5 C          63.4451   86.8758   12.9816 C.ar    1  UNL1        0.0882
      6 C          63.6662   88.2237   12.3617 C.ar    1  UNL1        0.0181
      7 N          62.8972   85.7508   12.1546 N.am    1  UNL1       -0.2512
      8 C          62.6761   84.4029   12.7744 C.2     1  UNL1        0.2698
      9 O          62.1281   83.2778   11.9474 O.2     1  UNL1       -0.2704
     10 C          63.0030   84.1800   14.2213 C.3     1  UNL1        0.2199
     11 C          63.1583   83.4823   15.5401 C.3     1  UNL1        0.0579
     12 O          63.5509   85.3050   15.0483 O.3     1  UNL1       -0.4686
     13 C          65.3138   91.7018   13.2529 C.ar    1  UNL1        0.0645
     14 N          65.5349   93.0497   12.6331 N.ar    1  UNL1       -0.2183
     15 C          64.8775   93.3926   11.3291 C.ar    1  UNL1        0.2145
     16 N          65.0986   94.7405   10.7093 N.pl3   1  UNL1       -0.3274
     17 N          63.9989   92.3875   10.6451 N.ar    1  UNL1       -0.1995
     18 C          63.7778   91.0396   11.2650 C.ar    1  UNL1        0.1293
     19 N          62.8993   90.0345   10.5809 N.pl3   1  UNL1       -0.3425
     20 C          64.4353   90.6967   12.5689 C.ar    1  UNL1        0.0449
     21 H          65.6752   95.4002   11.1583 H       1  UNL1        0.1452
     22 H          64.6670   94.9655    9.8535 H       1  UNL1        0.1452
     23 H          62.4677   90.2595    9.7251 H       1  UNL1        0.1437
     24 H          62.7541   89.1498   10.9878 H       1  UNL1        0.1437
     25 C          67.4114   91.7105   14.7859 C.3     1  UNL1        0.0067
     26 C          65.9713   91.3590   14.5569 C.3     1  UNL1        0.0460
     27 C          62.5090   82.8126   13.8523 C.ar    1  UNL1        0.0264
     28 C          61.2667   82.2663   14.4912 C.ar    1  UNL1        0.0293
     29 C          60.7727   80.8988   14.1221 C.ar    1  UNL1        0.1422
     30 F          59.5303   80.3525   14.7612 F       1  UNL1       -0.2041
     31 C          61.5208   80.0778   13.1142 C.ar    1  UNL1        0.0592
     32 C          62.7631   80.6242   12.4753 C.ar    1  UNL1        0.1422
     33 F          63.5114   79.8032   11.4673 F       1  UNL1       -0.2041
     34 C          63.2572   81.9916   12.8443 C.ar    1  UNL1        0.0293
     35 C          62.5703   85.9736   10.7077 C.3     1  UNL1        0.1196
     36 C          61.2603   86.5941   10.3217 C.3     1  UNL1        0.1113
     37 N          60.4050   87.2504   11.3647 N.am    1  UNL1       -0.3026
     38 C          59.8982   88.6457   11.1497 C.2     1  UNL1        0.2230
     39 C          59.0429   89.3020   12.1926 C.3     1  UNL1        0.0946
     40 O          60.2467   89.3847    9.8916 O.2     1  UNL1       -0.2751
     41 H          60.1763   86.7653   12.1903 H       1  UNL1        0.1495
@<TRIPOS>BOND
     1    25    26    1
     2    26    13    1
     3    13    14   ar
     4    14    15   ar
     5    15    16    1
     6    15    17   ar
     7    17    18   ar
     8    18    19    1
     9    18    20   ar
    10    20     1    1
    11     1     2   ar
    12     2     3   ar
    13     3     4   ar
    14     4     5   ar
    15     5     6   ar
    16     5     7    1
    17     7    35    1
    18    35    36    1
    19    36    37    1
    20    37    38   am
    21    38    39    1
    22    38    40    2
    23     7     8   am
    24     8     9    2
    25     8    10    1
    26    10    11    1
    27    10    27    1
    28    27    28   ar
    29    28    29   ar
    30    29    30    1
    31    29    31   ar
    32    31    32   ar
    33    32    33    1
    34    32    34   ar
    35    10    12    1
    36    20    13   ar
    37     6     1   ar
    38    34    27   ar
    39    12     4    1
    40    16    21    1
    41    16    22    1
    42    19    23    1
    43    19    24    1
    44    37    41    1
@<TRIPOS>MOLECULE
*****
 41 44 0 0 0
SMALL
GASTEIGER

@<TRIPOS>ATOM
      1 C          64.2357   89.3675   13.2096 C.ar    1  UNL1        0.0053
      2 C          64.5722   89.1368   14.6530 C.ar    1  UNL1        0.0033
      3 C          64.3527   87.7863   15.2677 C.ar    1  UNL1        0.0382
      4 C          63.7966   86.6665   14.4390 C.ar    1  UNL1        0.1529
      5 C          63.4600   86.8972   12.9956 C.ar    1  UNL1        0.0882
      6 C          63.6796   88.2477   12.3809 C.ar    1  UNL1        0.0181
      7 N          62.9039   85.7774   12.1669 N.am    1  UNL1       -0.2512
      8 C          62.6844   84.4269   12.7816 C.2     1  UNL1        0.2698
      9 O          62.1282   83.3071   11.9529 O.2     1  UNL1       -0.2704
     10 C          63.0209   84.1962   14.2251 C.3     1  UNL1        0.2199
     11 C          63.1840   83.4916   15.5392 C.3     1  UNL1        0.0579
     12 O          63.5770   85.3160   15.0538 O.3     1  UNL1       -0.4686
     13 C          65.3141   91.7297   13.2941 C.ar    1  UNL1        0.0645
     14 N          65.5337   93.0802   12.6794 N.ar    1  UNL1       -0.2183
     15 C          64.8944   93.4191   11.3654 C.ar    1  UNL1        0.2145
     16 N          65.1140   94.7696   10.7506 N.pl3   1  UNL1       -0.3274
     17 N          64.0355   92.4075   10.6661 N.ar    1  UNL1       -0.1995
     18 C          63.8160   91.0569   11.2809 C.ar    1  UNL1        0.1293
     19 N          62.9571   90.0453   10.5817 N.pl3   1  UNL1       -0.3425
     20 C          64.4553   90.7181   12.5948 C.ar    1  UNL1        0.0449
     21 H          65.6777   95.4336   11.2096 H       1  UNL1        0.1452
     22 H          64.6944   94.9920    9.8883 H       1  UNL1        0.1452
     23 H          62.5375   90.2677    9.7193 H       1  UNL1        0.1437
     24 H          62.8130   89.1589   10.9852 H       1  UNL1        0.1437
     25 C          67.4180   91.6394   14.8158 C.3     1  UNL1        0.0067
     26 C          65.9534   91.3908   14.6081 C.3     1  UNL1        0.0460
     27 C          62.5214   82.8317   13.8527 C.ar    1  UNL1        0.0264
     28 C          63.2669   82.0097   12.8435 C.ar    1  UNL1        0.0293
     29 C          62.7674   80.6452   12.4711 C.ar    1  UNL1        0.1422
     30 F          63.5130   79.8233   11.4618 F       1  UNL1       -0.2041
     31 C          61.5225   80.1026   13.1080 C.ar    1  UNL1        0.0592
     32 C          60.7771   80.9246   14.1173 C.ar    1  UNL1        0.1422
     33 F          59.5321   80.3820   14.7543 F       1  UNL1       -0.2041
     34 C          61.2765   82.2891   14.4897 C.ar    1  UNL1        0.0293
     35 C          62.5674   86.0081   10.7235 C.3     1  UNL1        0.1196
     36 C          61.2287   86.5696   10.3459 C.3     1  UNL1        0.1113
     37 N          60.4017   87.2897   11.3695 N.am    1  UNL1       -0.3026
     38 C          59.9420   88.6937   11.1095 C.2     1  UNL1        0.2230
     39 C          59.1151   89.4138   12.1330 C.3     1  UNL1        0.0946
     40 O          60.3093   89.3775    9.8259 O.2     1  UNL1       -0.2751
     41 H          60.1607   86.8409   12.2120 H       1  UNL1        0.1495
@<TRIPOS>BOND
     1    25    26    1
     2    26    13    1
     3    13    14   ar
     4    14    15   ar
     5    15    16    1
     6    15    17   ar
     7    17    18   ar
     8    18    19    1
     9    18    20   ar
    10    20     1    1
    11     1     2   ar
    12     2     3   ar
    13     3     4   ar
    14     4     5   ar
    15     5     6   ar
    16     5     7    1
    17     7    35    1
    18    35    36    1
    19    36    37    1
    20    37    38   am
    21    38    39    1
    22    38    40    2
    23     7     8   am
    24     8     9    2
    25     8    10    1
    26    10    11    1
    27    10    27    1
    28    27    28   ar
    29    28    29   ar
    30    29    30    1
    31    29    31   ar
    32    31    32   ar
    33    32    33    1
    34    32    34   ar
    35    10    12    1
    36    20    13   ar
    37     6     1   ar
    38    34    27   ar
    39    12     4    1
    40    16    21    1
    41    16    22    1
    42    19    23    1
    43    19    24    1
    44    37    41    1
@<TRIPOS>MOLECULE
*****
 41 44 0 0 0
SMALL
GASTEIGER

@<TRIPOS>ATOM
      1 C          64.1441   89.3345   13.1058 C.ar    1  UNL1        0.0053
      2 C          64.4129   89.1448   14.5693 C.ar    1  UNL1        0.0033
      3 C          64.1784   87.8080   15.2078 C.ar    1  UNL1        0.0382
      4 C          63.6751   86.6607   14.3828 C.ar    1  UNL1        0.1529
      5 C          63.4062   86.8504   12.9194 C.ar    1  UNL1        0.0882
      6 C          63.6407   88.1873   12.2809 C.ar    1  UNL1        0.0181
      7 N          62.9029   85.7032   12.0944 N.am    1  UNL1       -0.2512
      8 C          62.6684   84.3663   12.7329 C.2     1  UNL1        0.2698
      9 O          62.1650   83.2191   11.9080 O.2     1  UNL1       -0.2704
     10 C          62.9372   84.1766   14.1964 C.3     1  UNL1        0.2199
     11 C          63.0442   83.5078   15.5349 C.3     1  UNL1        0.0579
     12 O          63.4406   85.3238   15.0214 O.3     1  UNL1       -0.4686
     13 C          63.6620   91.0334   11.2001 C.ar    1  UNL1        0.0645
     14 N          63.8965   92.3702   10.5616 N.ar    1  UNL1       -0.2183
     15 C          64.8475   93.3452   11.1901 C.ar    1  UNL1        0.2145
     16 N          65.0820   94.6821   10.5515 N.pl3   1  UNL1       -0.3274
     17 N          65.5640   92.9833   12.4572 N.ar    1  UNL1       -0.1995
     18 C          65.3295   91.6463   13.0958 C.ar    1  UNL1        0.1293
     19 N          66.0461   91.2844   14.3629 N.pl3   1  UNL1       -0.3425
     20 C          64.3786   90.6714   12.4673 C.ar    1  UNL1        0.0449
     21 H          64.6117   94.9196    9.7199 H       1  UNL1        0.1452
     22 H          65.7061   95.3220   10.9641 H       1  UNL1        0.1452
     23 H          66.6703   91.9243   14.7755 H       1  UNL1        0.1437
     24 H          65.8922   90.4070   14.7820 H       1  UNL1        0.1437
     25 C          61.2397   90.3500   10.5555 C.3     1  UNL1        0.0067
     26 C          62.7110   90.0584   10.5716 C.3     1  UNL1        0.0460
     27 C          62.4710   82.7972   13.8363 C.ar    1  UNL1        0.0264
     28 C          63.2348   81.9856   12.8323 C.ar    1  UNL1        0.0293
     29 C          62.7686   80.6061   12.4722 C.ar    1  UNL1        0.1422
     30 F          63.5324   79.7946   11.4681 F       1  UNL1       -0.2041
     31 C          61.5387   80.0382   13.1160 C.ar    1  UNL1        0.0592
     32 C          60.7749   80.8497   14.1200 C.ar    1  UNL1        0.1422
     33 F          59.5449   80.2817   14.7639 F       1  UNL1       -0.2041
     34 C          61.2410   82.2292   14.4802 C.ar    1  UNL1        0.0293
     35 C          62.6340   85.8928   10.6310 C.3     1  UNL1        0.1196
     36 C          61.2237   85.8852   10.1204 C.3     1  UNL1        0.1113
     37 N          60.6376   87.1274    9.5173 N.am    1  UNL1       -0.3026
     38 C          59.9602   87.0644    8.1804 C.2     1  UNL1        0.2230
     39 C          59.3742   88.3065    7.5773 C.3     1  UNL1        0.0946
     40 O          59.8688   85.7593    7.4467 O.2     1  UNL1       -0.2751
     41 H          60.6976   87.9840    9.9989 H       1  UNL1        0.1495
@<TRIPOS>BOND
     1    25    26    1
     2    26    13    1
     3    13    14   ar
     4    14    15   ar
     5    15    16    1
     6    15    17   ar
     7    17    18   ar
     8    18    19    1
     9    18    20   ar
    10    20     1    1
    11     1     2   ar
    12     2     3   ar
    13     3     4   ar
    14     4     5   ar
    15     5     6   ar
    16     5     7    1
    17     7    35    1
    18    35    36    1
    19    36    37    1
    20    37    38   am
    21    38    39    1
    22    38    40    2
    23     7     8   am
    24     8     9    2
    25     8    10    1
    26    10    11    1
    27    10    27    1
    28    27    28   ar
    29    28    29   ar
    30    29    30    1
    31    29    31   ar
    32    31    32   ar
    33    32    33    1
    34    32    34   ar
    35    10    12    1
    36    20    13   ar
    37     6     1   ar
    38    34    27   ar
    39    12     4    1
    40    16    21    1
    41    16    22    1
    42    19    23    1
    43    19    24    1
    44    37    41    1
@<TRIPOS>MOLECULE
*****
 41 44 0 0 0
SMALL
GASTEIGER

@<TRIPOS>ATOM
      1 C          65.3792   90.7197   14.0619 C.ar    1  UNL1        0.0053
      2 C          65.0930   89.4391   14.7885 C.ar    1  UNL1        0.0033
      3 C          64.1678   88.4247   14.1845 C.ar    1  UNL1        0.0382
      4 C          63.5287   88.6910   12.8539 C.ar    1  UNL1        0.1529
      5 C          63.8148   89.9716   12.1272 C.ar    1  UNL1        0.0882
      6 C          64.7401   90.9860   12.7312 C.ar    1  UNL1        0.0181
      7 N          63.1757   90.2378   10.7966 N.am    1  UNL1       -0.2512
      8 C          62.2505   89.2235   10.1925 C.2     1  UNL1        0.2698
      9 O          61.6114   89.4897    8.8619 O.2     1  UNL1       -0.2704
     10 C          61.9643   87.9427   10.9192 C.3     1  UNL1        0.2199
     11 C          61.3865   86.5916   11.2200 C.3     1  UNL1        0.0579
     12 O          62.6034   87.6765   12.2498 O.3     1  UNL1       -0.4686
     13 C          65.9750   92.3545   15.9913 C.ar    1  UNL1        0.0645
     14 N          66.9002   93.3690   16.5953 N.ar    1  UNL1       -0.2183
     15 C          68.1550   93.7631   15.8740 C.ar    1  UNL1        0.2145
     16 N          69.0802   94.7775   16.4780 N.pl3   1  UNL1       -0.3274
     17 N          68.4845   93.1427   14.5486 N.ar    1  UNL1       -0.1995
     18 C          67.5592   92.1282   13.9446 C.ar    1  UNL1        0.1293
     19 N          67.8887   91.5079   12.6192 N.pl3   1  UNL1       -0.3425
     20 C          66.3045   91.7342   14.6659 C.ar    1  UNL1        0.0449
     21 H          68.8640   95.1846   17.3479 H       1  UNL1        0.1452
     22 H          69.9038   95.0361   16.0045 H       1  UNL1        0.1452
     23 H          68.7122   91.7665   12.1458 H       1  UNL1        0.1437
     24 H          67.2814   90.8421   12.2228 H       1  UNL1        0.1437
     25 C          63.7287   93.0095   17.1207 C.3     1  UNL1        0.0067
     26 C          64.7202   91.9604   16.7126 C.3     1  UNL1        0.0460
     27 C          61.1245   87.7398    9.6930 C.ar    1  UNL1        0.0264
     28 C          61.1773   86.4347    8.9555 C.ar    1  UNL1        0.0293
     29 C          60.3375   86.2317    7.7292 C.ar    1  UNL1        0.1422
     30 F          60.3903   84.9265    6.9917 F       1  UNL1       -0.2041
     31 C          59.4450   87.3337    7.2406 C.ar    1  UNL1        0.0592
     32 C          59.3922   88.6388    7.9781 C.ar    1  UNL1        0.1422
     33 F          58.4997   89.7409    7.4894 F       1  UNL1       -0.2041
     34 C          60.2320   88.8419    9.2043 C.ar    1  UNL1        0.0293
     35 C          63.4619   91.5185   10.0699 C.3     1  UNL1        0.1196
     36 C          64.7811   92.2077   10.2559 C.3     1  UNL1        0.1113
     37 N          64.8254   93.6830   10.5236 N.am    1  UNL1       -0.3026
     38 C          66.1427   94.3662   10.7428 C.2     1  UNL1        0.2230
     39 C          66.1870   95.8414   11.0105 C.3     1  UNL1        0.0946
     40 O          67.4156   93.5742   10.6942 O.2     1  UNL1       -0.2751
     41 H          63.9899   94.2028   10.5555 H       1  UNL1        0.1495
@<TRIPOS>BOND
     1    25    26    1
     2    26    13    1
     3    13    14   ar
     4    14    15   ar
     5    15    16    1
     6    15    17   ar
     7    17    18   ar
     8    18    19    1
     9    18    20   ar
    10    20     1    1
    11     1     2   ar
    12     2     3   ar
    13     3     4   ar
    14     4     5   ar
    15     5     6   ar
    16     5     7    1
    17     7    35    1
    18    35    36    1
    19    36    37    1
    20    37    38   am
    21    38    39    1
    22    38    40    2
    23     7     8   am
    24     8     9    2
    25     8    10    1
    26    10    11    1
    27    10    27    1
    28    27    28   ar
    29    28    29   ar
    30    29    30    1
    31    29    31   ar
    32    31    32   ar
    33    32    33    1
    34    32    34   ar
    35    10    12    1
    36    20    13   ar
    37     6     1   ar
    38    34    27   ar
    39    12     4    1
    40    16    21    1
    41    16    22    1
    42    19    23    1
    43    19    24    1
    44    37    41    1
@<TRIPOS>MOLECULE
*****
 41 44 0 0 0
SMALL
GASTEIGER

@<TRIPOS>ATOM
      1 C          60.9605   93.9262    0.4519 C.ar    1  UNL1        0.0053
      2 C          59.8743   93.2125    1.2007 C.ar    1  UNL1        0.0033
      3 C          58.6596   92.7199    0.4714 C.ar    1  UNL1        0.0382
      4 C          58.5312   92.9408   -1.0066 C.ar    1  UNL1        0.1529
      5 C          59.6174   93.6545   -1.7554 C.ar    1  UNL1        0.0882
      6 C          60.8321   94.1472   -1.0262 C.ar    1  UNL1        0.0181
      7 N          59.4890   93.8755   -3.2335 N.am    1  UNL1       -0.2512
      8 C          58.2743   93.3828   -3.9627 C.2     1  UNL1        0.2698
      9 O          58.1459   93.6038   -5.4408 O.2     1  UNL1       -0.2704
     10 C          57.1880   92.6691   -3.2139 C.3     1  UNL1        0.2199
     11 C          55.9021   91.9448   -2.9461 C.3     1  UNL1        0.0579
     12 O          57.3165   92.4481   -1.7359 O.3     1  UNL1       -0.4686
     13 C          63.0677   93.4467    1.8940 C.ar    1  UNL1        0.0645
     14 N          64.2824   93.9393    2.6232 N.ar    1  UNL1       -0.2183
     15 C          64.6047   95.4042    2.6396 C.ar    1  UNL1        0.2145
     16 N          65.8193   95.8969    3.3688 N.pl3   1  UNL1       -0.3274
     17 N          63.7122   96.3765    1.9266 N.ar    1  UNL1       -0.1995
     18 C          62.4974   95.8838    1.1974 C.ar    1  UNL1        0.1293
     19 N          61.6050   96.8560    0.4845 N.pl3   1  UNL1       -0.3425
     20 C          62.1752   94.4189    1.1811 C.ar    1  UNL1        0.0449
     21 H          66.4051   95.2588    3.8367 H       1  UNL1        0.1452
     22 H          66.0308   96.8583    3.3795 H       1  UNL1        0.1452
     23 H          61.8164   97.8174    0.4952 H       1  UNL1        0.1437
     24 H          60.8077   96.5326    0.0059 H       1  UNL1        0.1437
     25 C          63.2077   91.0996    2.9994 C.3     1  UNL1        0.0067
     26 C          62.7455   91.9817    1.8777 C.3     1  UNL1        0.0460
     27 C          56.6130   92.6385   -4.5989 C.ar    1  UNL1        0.0264
     28 C          56.6232   91.3624   -5.3873 C.ar    1  UNL1        0.0293
     29 C          56.0481   91.3319   -6.7724 C.ar    1  UNL1        0.1422
     30 F          56.0583   90.0557   -7.5606 F       1  UNL1       -0.2041
     31 C          55.4629   92.5774   -7.3691 C.ar    1  UNL1        0.0592
     32 C          55.4528   93.8535   -6.5808 C.ar    1  UNL1        0.1422
     33 F          54.8676   95.0991   -7.1776 F       1  UNL1       -0.2041
     34 C          56.0278   93.8841   -5.1957 C.ar    1  UNL1        0.0293
     35 C          60.5752   94.5891   -3.9823 C.3     1  UNL1        0.1196
     36 C          61.9658   94.0271   -4.0032 C.3     1  UNL1        0.1113
     37 N          63.1193   94.8946   -4.4117 N.am    1  UNL1       -0.3026
     38 C          64.2016   95.2172   -3.4246 C.2     1  UNL1        0.2230
     39 C          65.3551   96.0846   -3.8331 C.3     1  UNL1        0.0946
     40 O          64.1305   94.6721   -2.0288 O.2     1  UNL1       -0.2751
     41 H          63.1660   95.2523   -5.3278 H       1  UNL1        0.1495
@<TRIPOS>BOND
     1    25    26    1
     2    26    13    1
     3    13    14   ar
     4    14    15   ar
     5    15    16    1
     6    15    17   ar
     7    17    18   ar
     8    18    19    1
     9    18    20   ar
    10    20     1    1
    11     1     2   ar
    12     2     3   ar
    13     3     4   ar
    14     4     5   ar
    15     5     6   ar
    16     5     7    1
    17     7    35    1
    18    35    36    1
    19    36    37    1
    20    37    38   am
    21    38    39    1
    22    38    40    2
    23     7     8   am
    24     8     9    2
    25     8    10    1
    26    10    11    1
    27    10    27    1
    28    27    28   ar
    29    28    29   ar
    30    29    30    1
    31    29    31   ar
    32    31    32   ar
    33    32    33    1
    34    32    34   ar
    35    10    12    1
    36    20    13   ar
    37     6     1   ar
    38    34    27   ar
    39    12     4    1
    40    16    21    1
    41    16    22    1
    42    19    23    1
    43    19    24    1
    44    37    41    1
@<TRIPOS>MOLECULE
*****
 41 44 0 0 0
SMALL
GASTEIGER

@<TRIPOS>ATOM
      1 C          64.7612   90.2560   13.7259 C.ar    1  UNL1        0.0053
      2 C          63.7486   90.5714   12.6652 C.ar    1  UNL1        0.0033
      3 C          62.9706   89.4641   12.0181 C.ar    1  UNL1        0.0382
      4 C          63.2053   88.0415   12.4317 C.ar    1  UNL1        0.1529
      5 C          64.2179   87.7261   13.4923 C.ar    1  UNL1        0.0882
      6 C          64.9959   88.8333   14.1394 C.ar    1  UNL1        0.0181
      7 N          64.4525   86.3035   13.9059 N.am    1  UNL1       -0.2512
      8 C          63.6746   85.1962   13.2588 C.2     1  UNL1        0.2698
      9 O          63.9092   83.7736   13.6724 O.2     1  UNL1       -0.2704
     10 C          62.6619   85.5116   12.1981 C.3     1  UNL1        0.2199
     11 C          61.6031   85.3085   11.1552 C.3     1  UNL1        0.0579
     12 O          62.4273   86.9343   11.7845 O.3     1  UNL1       -0.4686
     13 C          66.6720   92.0141   13.6360 C.ar    1  UNL1        0.0645
     14 N          67.4500   93.1213   14.2830 N.ar    1  UNL1       -0.2183
     15 C          67.0953   93.5777   15.6673 C.ar    1  UNL1        0.2145
     16 N          67.8733   94.6849   16.3144 N.pl3   1  UNL1       -0.3274
     17 N          65.9625   92.9268   16.4043 N.ar    1  UNL1       -0.1995
     18 C          65.1845   91.8195   15.7572 C.ar    1  UNL1        0.1293
     19 N          64.0518   91.1686   16.4942 N.pl3   1  UNL1       -0.3425
     20 C          65.5392   91.3632   14.3730 C.ar    1  UNL1        0.0449
     21 H          68.6167   95.1121   15.8306 H       1  UNL1        0.1452
     22 H          67.6405   94.9844   17.2228 H       1  UNL1        0.1452
     23 H          63.8190   91.4681   17.4027 H       1  UNL1        0.1437
     24 H          63.5411   90.4419   16.0695 H       1  UNL1        0.1437
     25 C          66.9751   92.5254   11.1068 C.3     1  UNL1        0.0067
     26 C          67.0267   91.5578   12.2517 C.3     1  UNL1        0.0460
     27 C          62.5288   84.0185   12.2495 C.ar    1  UNL1        0.0264
     28 C          61.9101   83.3614   13.4476 C.ar    1  UNL1        0.0293
     29 C          61.7770   81.8682   13.4990 C.ar    1  UNL1        0.1422
     30 F          61.1582   81.2112   14.6972 F       1  UNL1       -0.2041
     31 C          62.2627   81.0320   12.3524 C.ar    1  UNL1        0.0592
     32 C          62.8814   81.6891   11.1543 C.ar    1  UNL1        0.1422
     33 F          63.3671   80.8528   10.0075 F       1  UNL1       -0.2041
     34 C          63.0145   83.1822   11.1028 C.ar    1  UNL1        0.0293
     35 C          65.4651   85.9881   14.9666 C.3     1  UNL1        0.1196
     36 C          65.0151   85.5007   16.3120 C.3     1  UNL1        0.1113
     37 N          63.5511   85.3647   16.6092 N.am    1  UNL1       -0.3026
     38 C          62.7408   86.5778   16.9580 C.2     1  UNL1        0.2230
     39 C          61.2768   86.4419   17.2552 C.3     1  UNL1        0.0946
     40 O          63.3945   87.9270   17.0096 O.2     1  UNL1       -0.2751
     41 H          63.1221   84.4792   16.5753 H       1  UNL1        0.1495
@<TRIPOS>BOND
     1    25    26    1
     2    26    13    1
     3    13    14   ar
     4    14    15   ar
     5    15    16    1
     6    15    17   ar
     7    17    18   ar
     8    18    19    1
     9    18    20   ar
    10    20     1    1
    11     1     2   ar
    12     2     3   ar
    13     3     4   ar
    14     4     5   ar
    15     5     6   ar
    16     5     7    1
    17     7    35    1
    18    35    36    1
    19    36    37    1
    20    37    38   am
    21    38    39    1
    22    38    40    2
    23     7     8   am
    24     8     9    2
    25     8    10    1
    26    10    11    1
    27    10    27    1
    28    27    28   ar
    29    28    29   ar
    30    29    30    1
    31    29    31   ar
    32    31    32   ar
    33    32    33    1
    34    32    34   ar
    35    10    12    1
    36    20    13   ar
    37     6     1   ar
    38    34    27   ar
    39    12     4    1
    40    16    21    1
    41    16    22    1
    42    19    23    1
    43    19    24    1
    44    37    41    1
@<TRIPOS>MOLECULE
*****
 41 44 0 0 0
SMALL
GASTEIGER

@<TRIPOS>ATOM
      1 C          63.6898   89.0246   13.6165 C.ar    1  UNL1        0.0053
      2 C          63.0414   89.2790   12.2880 C.ar    1  UNL1        0.0033
      3 C          62.6407   88.1262   11.4160 C.ar    1  UNL1        0.0382
      4 C          62.8884   86.7190   11.8724 C.ar    1  UNL1        0.1529
      5 C          63.5368   86.4646   13.2009 C.ar    1  UNL1        0.0882
      6 C          63.9375   87.6174   14.0729 C.ar    1  UNL1        0.0181
      7 N          63.7846   85.0573   13.6573 N.am    1  UNL1       -0.2512
      8 C          63.3839   83.9045   12.7853 C.2     1  UNL1        0.2698
      9 O          63.6317   82.4973   13.2417 O.2     1  UNL1       -0.2704
     10 C          62.7355   84.1589   11.4568 C.3     1  UNL1        0.2199
     11 C          62.0960   83.8925   10.1264 C.3     1  UNL1        0.0579
     12 O          62.4877   85.5661   11.0003 O.3     1  UNL1       -0.4686
     13 C          65.0483   91.2103   13.9731 C.ar    1  UNL1        0.0645
     14 N          65.4490   92.3631   14.8451 N.ar    1  UNL1       -0.2183
     15 C          64.8918   92.4831   16.2327 C.ar    1  UNL1        0.2145
     16 N          65.2926   93.6359   17.1047 N.pl3   1  UNL1       -0.3274
     17 N          63.9340   91.4502   16.7481 N.ar    1  UNL1       -0.1995
     18 C          63.5333   90.2974   15.8760 C.ar    1  UNL1        0.1293
     19 N          62.5754   89.2645   16.3915 N.pl3   1  UNL1       -0.3425
     20 C          64.0904   90.1774   14.4886 C.ar    1  UNL1        0.0449
     21 H          65.9212   94.3138   16.7664 H       1  UNL1        0.1452
     22 H          64.9269   93.7146   18.0154 H       1  UNL1        0.1452
     23 H          62.2097   89.3433   17.3022 H       1  UNL1        0.1437
     24 H          62.3124   88.5079   15.8192 H       1  UNL1        0.1437
     25 C          65.5929   92.2762   11.6672 C.3     1  UNL1        0.0067
     26 C          65.6055   91.0903   12.5856 C.3     1  UNL1        0.0460
     27 C          62.7611   82.6592   11.4512 C.ar    1  UNL1        0.0264
     28 C          63.3089   81.9229   10.2647 C.ar    1  UNL1        0.0293
     29 C          63.3346   80.4231   10.2591 C.ar    1  UNL1        0.1422
     30 F          63.8824   79.6868    9.0725 F       1  UNL1       -0.2041
     31 C          62.8125   79.6596   11.4399 C.ar    1  UNL1        0.0592
     32 C          62.2647   80.3959   12.6264 C.ar    1  UNL1        0.1422
     33 F          61.7425   79.6324   13.8073 F       1  UNL1       -0.2041
     34 C          62.2390   81.8957   12.6321 C.ar    1  UNL1        0.0293
     35 C          64.4330   84.8029   14.9858 C.3     1  UNL1        0.1196
     36 C          63.5859   84.5560   16.1988 C.3     1  UNL1        0.1113
     37 N          63.7151   85.4478   17.3980 N.am    1  UNL1       -0.3026
     38 C          62.5604   86.3063   17.8220 C.2     1  UNL1        0.2230
     39 C          62.6896   87.1981   19.0212 C.3     1  UNL1        0.0946
     40 O          61.2766   86.2729   17.0469 O.2     1  UNL1       -0.2751
     41 H          64.5577   85.4697   17.9067 H       1  UNL1        0.1495
@<TRIPOS>BOND
     1    25    26    1
     2    26    13    1
     3    13    14   ar
     4    14    15   ar
     5    15    16    1
     6    15    17   ar
     7    17    18   ar
     8    18    19    1
     9    18    20   ar
    10    20     1    1
    11     1     2   ar
    12     2     3   ar
    13     3     4   ar
    14     4     5   ar
    15     5     6   ar
    16     5     7    1
    17     7    35    1
    18    35    36    1
    19    36    37    1
    20    37    38   am
    21    38    39    1
    22    38    40    2
    23     7     8   am
    24     8     9    2
    25     8    10    1
    26    10    11    1
    27    10    27    1
    28    27    28   ar
    29    28    29   ar
    30    29    30    1
    31    29    31   ar
    32    31    32   ar
    33    32    33    1
    34    32    34   ar
    35    10    12    1
    36    20    13   ar
    37     6     1   ar
    38    34    27   ar
    39    12     4    1
    40    16    21    1
    41    16    22    1
    42    19    23    1
    43    19    24    1
    44    37    41    1
@<TRIPOS>MOLECULE
*****
 41 44 0 0 0
SMALL
GASTEIGER

@<TRIPOS>ATOM
      1 C          61.2189   94.3056    0.2231 C.ar    1  UNL1        0.0053
      2 C          60.3365   93.3555    0.9772 C.ar    1  UNL1        0.0033
      3 C          59.1636   92.7180    0.2933 C.ar    1  UNL1        0.0382
      4 C          58.8730   93.0306   -1.1447 C.ar    1  UNL1        0.1529
      5 C          59.7554   93.9807   -1.8988 C.ar    1  UNL1        0.0882
      6 C          60.9283   94.6182   -1.2149 C.ar    1  UNL1        0.0181
      7 N          59.4649   94.2933   -3.3368 N.am    1  UNL1       -0.2512
      8 C          58.2919   93.6559   -4.0207 C.2     1  UNL1        0.2698
      9 O          58.0014   93.9685   -5.4587 O.2     1  UNL1       -0.2704
     10 C          57.4095   92.7057   -3.2666 C.3     1  UNL1        0.2199
     11 C          56.2913   91.7488   -2.9770 C.3     1  UNL1        0.0579
     12 O          57.7000   92.3931   -1.8286 O.3     1  UNL1       -0.4686
     13 C          62.2004   96.1909    1.7173 C.ar    1  UNL1        0.0645
     14 N          63.3733   96.8284    2.4012 N.ar    1  UNL1       -0.2183
     15 C          64.7378   96.2182    2.2749 C.ar    1  UNL1        0.2145
     16 N          65.9107   96.8557    2.9588 N.pl3   1  UNL1       -0.3274
     17 N          64.9293   94.9704    1.4647 N.ar    1  UNL1       -0.1995
     18 C          63.7563   94.3329    0.7808 C.ar    1  UNL1        0.1293
     19 N          63.9478   93.0851   -0.0295 N.pl3   1  UNL1       -0.3425
     20 C          62.3919   94.9431    0.9071 C.ar    1  UNL1        0.0449
     21 H          65.7851   97.6746    3.4906 H       1  UNL1        0.1452
     22 H          66.8063   96.4552    2.8759 H       1  UNL1        0.1452
     23 H          64.8433   92.6846   -0.1124 H       1  UNL1        0.1437
     24 H          63.1779   92.6667   -0.4783 H       1  UNL1        0.1437
     25 C          60.0417   96.6085    3.1014 C.3     1  UNL1        0.0067
     26 C          60.8359   96.8011    1.8436 C.3     1  UNL1        0.0460
     27 C          56.7306   92.6860   -4.6040 C.ar    1  UNL1        0.0264
     28 C          56.0771   93.9287   -5.1318 C.ar    1  UNL1        0.0293
     29 C          55.3982   93.9090   -6.4693 C.ar    1  UNL1        0.1422
     30 F          54.7448   95.1519   -6.9971 F       1  UNL1       -0.2041
     31 C          55.3728   92.6466   -7.2789 C.ar    1  UNL1        0.0592
     32 C          56.0263   91.4039   -6.7511 C.ar    1  UNL1        0.1422
     33 F          56.0008   90.1414   -7.5608 F       1  UNL1       -0.2041
     34 C          56.7051   91.4235   -5.4137 C.ar    1  UNL1        0.0293
     35 C          60.3472   95.2434   -4.0909 C.3     1  UNL1        0.1196
     36 C          61.8361   95.1811   -3.9191 C.3     1  UNL1        0.1113
     37 N          62.6672   94.3695   -4.8681 N.am    1  UNL1       -0.3026
     38 C          63.3081   93.0956   -4.4028 C.2     1  UNL1        0.2230
     39 C          64.1392   92.2840   -5.3517 C.3     1  UNL1        0.0946
     40 O          63.1178   92.6334   -2.9885 O.2     1  UNL1       -0.2751
     41 H          62.7921   94.6729   -5.7963 H       1  UNL1        0.1495
@<TRIPOS>BOND
     1    25    26    1
     2    26    13    1
     3    13    14   ar
     4    14    15   ar
     5    15    16    1
     6    15    17   ar
     7    17    18   ar
     8    18    19    1
     9    18    20   ar
    10    20     1    1
    11     1     2   ar
    12     2     3   ar
    13     3     4   ar
    14     4     5   ar
    15     5     6   ar
    16     5     7    1
    17     7    35    1
    18    35    36    1
    19    36    37    1
    20    37    38   am
    21    38    39    1
    22    38    40    2
    23     7     8   am
    24     8     9    2
    25     8    10    1
    26    10    11    1
    27    10    27    1
    28    27    28   ar
    29    28    29   ar
    30    29    30    1
    31    29    31   ar
    32    31    32   ar
    33    32    33    1
    34    32    34   ar
    35    10    12    1
    36    20    13   ar
    37     6     1   ar
    38    34    27   ar
    39    12     4    1
    40    16    21    1
    41    16    22    1
    42    19    23    1
    43    19    24    1
    44    37    41    1
