@<TRIPOS>MOLECULE
*****
 27 29 0 0 0
SMALL
GASTEIGER

@<TRIPOS>ATOM
      1 C          63.1017   89.8859   12.3484 C.ar    1  UNL1        0.1655
      2 N          62.6146   89.7489   13.7605 N.ar    1  UNL1       -0.2239
      3 C          63.5195   90.5562   14.6434 C.ar    1  UNL1        0.0894
      4 C          63.5259   90.7944   16.1243 C.ar    1  UNL1        0.0228
      5 C          64.5786   91.6684   16.7388 C.ar    1  UNL1        0.0388
      6 C          65.6250   92.3044   15.8724 C.ar    1  UNL1        0.1474
      7 C          65.6186   92.0662   14.3915 C.ar    1  UNL1        0.0452
      8 C          64.5659   91.1921   13.7770 C.ar    1  UNL1        0.0527
      9 S          64.3076   90.7779   12.3586 S.2     1  UNL1       -0.0513
     10 C          62.3911   87.7496   11.0519 C.2     1  UNL1        0.2270
     11 O          62.9035   86.8975   12.1751 O.2     1  UNL1       -0.2747
     12 N          62.4902   89.2438   11.1386 N.am    1  UNL1       -0.2641
     13 H          62.1539   89.8030   10.4014 H       1  UNL1        0.1567
     14 C          58.3820   87.1958    7.7929 C.3     1  UNL1        0.0000
     15 C          59.7750   86.8305    8.2126 C.3     1  UNL1        0.0005
     16 C          60.3865   87.4727    9.4224 C.3     1  UNL1        0.0091
     17 C          61.7796   87.1074    9.8421 C.3     1  UNL1        0.0769
     18 C          62.5611   86.1000    9.0519 C.3     1  UNL1        0.0091
     19 C          61.9496   85.4578    7.8421 C.3     1  UNL1        0.0005
     20 C          63.2921   84.7889    7.8416 C.3     1  UNL1        0.0000
     21 C          61.8043   84.5834    6.6321 C.3     1  UNL1        0.0000
     22 C          60.5566   85.8231    7.4224 C.3     1  UNL1        0.0000
     23 O          66.6778   93.1785   16.4870 O.3     1  UNL1       -0.4044
     24 C          68.0518   93.2320   15.8877 C.3     1  UNL1        0.5753
     25 F          69.4259   93.2856   15.2884 F       1  UNL1       -0.1328
     26 F          67.6290   94.3808   15.0208 F       1  UNL1       -0.1328
     27 F          68.4746   92.0833   16.7546 F       1  UNL1       -0.1328
@<TRIPOS>BOND
     1    14    15    1
     2    15    16    1
     3    16    17    1
     4    17    10    1
     5    10    11    2
     6    10    12   am
     7    12     1    1
     8     1     2   ar
     9     2     3   ar
    10     3     4   ar
    11     4     5   ar
    12     5     6   ar
    13     6    23    1
    14    23    24    1
    15    24    25    1
    16    24    26    1
    17    24    27    1
    18     6     7   ar
    19     7     8   ar
    20     8     9   ar
    21    17    18    1
    22    18    19    1
    23    19    20    1
    24    19    21    1
    25    19    22    1
    26    22    15    1
    27     9     1   ar
    28     8     3   ar
    29    12    13    1
@<TRIPOS>MOLECULE
*****
 27 29 0 0 0
SMALL
GASTEIGER

@<TRIPOS>ATOM
      1 C          63.3132   90.1130   12.4854 C.ar    1  UNL1        0.1655
      2 N          62.8422   90.0221   13.9066 N.ar    1  UNL1       -0.2239
      3 C          63.7724   90.8364   14.7562 C.ar    1  UNL1        0.0894
      4 C          63.8021   91.1137   16.2300 C.ar    1  UNL1        0.0228
      5 C          64.8777   91.9851   16.8076 C.ar    1  UNL1        0.0388
      6 C          65.9236   92.5792   15.9114 C.ar    1  UNL1        0.1474
      7 C          65.8939   92.3020   14.4376 C.ar    1  UNL1        0.0452
      8 C          64.8183   91.4306   13.8600 C.ar    1  UNL1        0.0527
      9 S          64.5345   90.9834   12.4566 S.2     1  UNL1       -0.0513
     10 C          62.5787   87.9542   11.2405 C.2     1  UNL1        0.2270
     11 O          63.1206   87.1216   12.3644 O.2     1  UNL1       -0.2747
     12 N          62.6750   89.4498   11.3010 N.am    1  UNL1       -0.2641
     13 H          62.3194   89.9962   10.5633 H       1  UNL1        0.1567
     14 C          62.8168   84.5587    7.3144 C.3     1  UNL1        0.0000
     15 C          62.0596   85.5932    8.0930 C.3     1  UNL1        0.0005
     16 C          62.6978   86.2564    9.2774 C.3     1  UNL1        0.0091
     17 C          61.9405   87.2910   10.0560 C.3     1  UNL1        0.0769
     18 C          60.5450   87.6624    9.6502 C.3     1  UNL1        0.0091
     19 C          59.9068   86.9992    8.4657 C.3     1  UNL1        0.0005
     20 C          58.7937   87.9138    8.8833 C.3     1  UNL1        0.0000
     21 C          58.8821   86.6536    7.4263 C.3     1  UNL1        0.0000
     22 C          60.6641   85.9646    7.6871 C.3     1  UNL1        0.0000
     23 O          66.9993   93.4506   16.4892 O.3     1  UNL1       -0.4044
     24 C          68.4355   93.2045   16.1335 C.3     1  UNL1        0.5753
     25 F          69.8719   92.9584   15.7779 F       1  UNL1       -0.1328
     26 F          68.6770   94.6841   16.0848 F       1  UNL1       -0.1328
     27 F          68.1941   91.7249   16.1823 F       1  UNL1       -0.1328
@<TRIPOS>BOND
     1    14    15    1
     2    15    16    1
     3    16    17    1
     4    17    10    1
     5    10    11    2
     6    10    12   am
     7    12     1    1
     8     1     2   ar
     9     2     3   ar
    10     3     4   ar
    11     4     5   ar
    12     5     6   ar
    13     6    23    1
    14    23    24    1
    15    24    25    1
    16    24    26    1
    17    24    27    1
    18     6     7   ar
    19     7     8   ar
    20     8     9   ar
    21    17    18    1
    22    18    19    1
    23    19    20    1
    24    19    21    1
    25    19    22    1
    26    22    15    1
    27     9     1   ar
    28     8     3   ar
    29    12    13    1
@<TRIPOS>MOLECULE
*****
 27 29 0 0 0
SMALL
GASTEIGER

@<TRIPOS>ATOM
      1 C          63.8012   87.0352   14.8931 C.ar    1  UNL1        0.1655
      2 N          63.1675   87.7700   16.0369 N.ar    1  UNL1       -0.2239
      3 C          63.6646   89.1850   16.0111 C.ar    1  UNL1        0.0894
      4 C          63.3820   90.3643   16.8939 C.ar    1  UNL1        0.0228
      5 C          64.0404   91.6833   16.6169 C.ar    1  UNL1        0.0388
      6 C          64.9815   91.8230   15.4572 C.ar    1  UNL1        0.1474
      7 C          65.2641   90.6436   14.5745 C.ar    1  UNL1        0.0452
      8 C          64.6057   89.3247   14.8514 C.ar    1  UNL1        0.0527
      9 S          64.6901   87.9960   14.1604 S.2     1  UNL1       -0.0513
     10 C          63.1003   85.2176   13.1740 C.2     1  UNL1        0.2270
     11 O          62.8333   86.2849   12.1544 O.2     1  UNL1       -0.2747
     12 N          63.5843   85.5927   14.5433 N.am    1  UNL1       -0.2641
     13 H          63.7595   84.8922   15.2125 H       1  UNL1        0.1567
     14 C          61.0870   80.5647   14.3129 C.3     1  UNL1        0.0000
     15 C          61.8767   81.4487   13.3937 C.3     1  UNL1        0.0005
     16 C          62.0936   82.8911   13.7435 C.3     1  UNL1        0.0091
     17 C          62.8833   83.7752   12.8243 C.3     1  UNL1        0.0769
     18 C          63.4560   83.2168   11.5554 C.3     1  UNL1        0.0091
     19 C          63.2390   81.7744   11.2056 C.3     1  UNL1        0.0005
     20 C          64.0513   82.2100   10.0222 C.3     1  UNL1        0.0000
     21 C          63.3042   80.4833   10.4449 C.3     1  UNL1        0.0000
     22 C          62.4494   80.8903   12.1248 C.3     1  UNL1        0.0000
     23 O          65.6399   93.1420   15.1803 O.3     1  UNL1       -0.4044
     24 C          67.1330   93.2251   15.0638 C.3     1  UNL1        0.5753
     25 F          68.6262   93.3083   14.9474 F       1  UNL1       -0.1328
     26 F          67.2682   92.8057   16.4976 F       1  UNL1       -0.1328
     27 F          66.9978   93.6446   13.6300 F       1  UNL1       -0.1328
@<TRIPOS>BOND
     1    14    15    1
     2    15    16    1
     3    16    17    1
     4    17    10    1
     5    10    11    2
     6    10    12   am
     7    12     1    1
     8     1     2   ar
     9     2     3   ar
    10     3     4   ar
    11     4     5   ar
    12     5     6   ar
    13     6    23    1
    14    23    24    1
    15    24    25    1
    16    24    26    1
    17    24    27    1
    18     6     7   ar
    19     7     8   ar
    20     8     9   ar
    21    17    18    1
    22    18    19    1
    23    19    20    1
    24    19    21    1
    25    19    22    1
    26    22    15    1
    27     9     1   ar
    28     8     3   ar
    29    12    13    1
@<TRIPOS>MOLECULE
*****
 27 29 0 0 0
SMALL
GASTEIGER

@<TRIPOS>ATOM
      1 C          63.4635   85.0721   13.3895 C.ar    1  UNL1        0.1655
      2 N          62.5620   84.3641   14.3570 N.ar    1  UNL1       -0.2239
      3 C          62.4009   82.9480   13.8893 C.ar    1  UNL1        0.0894
      4 C          61.6276   81.7892   14.4453 C.ar    1  UNL1        0.0228
      5 C          61.6561   80.4632   13.7447 C.ar    1  UNL1        0.0388
      6 C          62.4580   80.2960   12.4881 C.ar    1  UNL1        0.1474
      7 C          63.2312   81.4548   11.9321 C.ar    1  UNL1        0.0452
      8 C          63.2027   82.7808   12.6327 C.ar    1  UNL1        0.0527
      9 S          63.8594   84.0935   12.3238 S.2     1  UNL1       -0.0513
     10 C          63.2142   87.5436   12.6284 C.2     1  UNL1        0.2270
     11 O          62.1049   87.1459   11.7002 O.2     1  UNL1       -0.2747
     12 N          63.8935   86.5067   13.4730 N.am    1  UNL1       -0.2641
     13 H          64.6215   86.7677   14.0822 H       1  UNL1        0.1567
     14 C          65.2073   91.4926   15.3548 C.3     1  UNL1        0.0000
     15 C          64.6407   90.9527   14.0751 C.3     1  UNL1        0.0005
     16 C          64.2108   89.5181   13.9916 C.3     1  UNL1        0.0091
     17 C          63.6442   88.9782   12.7119 C.3     1  UNL1        0.0769
     18 C          63.5077   89.8730   11.5158 C.3     1  UNL1        0.0091
     19 C          63.9377   91.3076   11.5993 C.3     1  UNL1        0.0005
     20 C          63.4632   91.2602   10.1771 C.3     1  UNL1        0.0000
     21 C          64.2029   92.7257   11.1889 C.3     1  UNL1        0.0000
     22 C          64.5042   91.8475   12.8789 C.3     1  UNL1        0.0000
     23 O          62.4865   78.9699   11.7874 O.3     1  UNL1       -0.4044
     24 C          62.9318   78.8866   10.3575 C.3     1  UNL1        0.5753
     25 F          63.3773   78.8032    8.9276 F       1  UNL1       -0.1328
     26 F          63.2705   77.4378   10.5475 F       1  UNL1       -0.1328
     27 F          62.5932   80.3355   10.1676 F       1  UNL1       -0.1328
@<TRIPOS>BOND
     1    14    15    1
     2    15    16    1
     3    16    17    1
     4    17    10    1
     5    10    11    2
     6    10    12   am
     7    12     1    1
     8     1     2   ar
     9     2     3   ar
    10     3     4   ar
    11     4     5   ar
    12     5     6   ar
    13     6    23    1
    14    23    24    1
    15    24    25    1
    16    24    26    1
    17    24    27    1
    18     6     7   ar
    19     7     8   ar
    20     8     9   ar
    21    17    18    1
    22    18    19    1
    23    19    20    1
    24    19    21    1
    25    19    22    1
    26    22    15    1
    27     9     1   ar
    28     8     3   ar
    29    12    13    1
@<TRIPOS>MOLECULE
*****
 27 29 0 0 0
SMALL
GASTEIGER

@<TRIPOS>ATOM
      1 C          62.5331   89.4740   11.6282 C.ar    1  UNL1        0.1655
      2 N          62.3451   88.0471   11.2056 N.ar    1  UNL1       -0.2239
      3 C          61.4341   88.0328   10.0140 C.ar    1  UNL1        0.0894
      4 C          60.8976   86.9117    9.1742 C.ar    1  UNL1        0.0228
      5 C          59.9861   87.2086    8.0206 C.ar    1  UNL1        0.0388
      6 C          59.6111   88.6267    7.7067 C.ar    1  UNL1        0.1474
      7 C          60.1476   89.7478    8.5464 C.ar    1  UNL1        0.0452
      8 C          61.0591   89.4508    9.7001 C.ar    1  UNL1        0.0527
      9 S          61.7384   90.3415   10.6977 S.2     1  UNL1       -0.0513
     10 C          64.3947   91.0238   12.5676 C.2     1  UNL1        0.2270
     11 O          64.5843   91.6220   11.2051 O.2     1  UNL1       -0.2747
     12 N          63.3692   89.9498   12.7791 N.am    1  UNL1       -0.2641
     13 H          63.2447   89.5572   13.6733 H       1  UNL1        0.1567
     14 C          64.7948   92.4825   17.5388 C.3     1  UNL1        0.0000
     15 C          65.4307   92.2290   16.2042 C.3     1  UNL1        0.0005
     16 C          64.5947   91.7531   15.0532 C.3     1  UNL1        0.0091
     17 C          65.2307   91.4996   13.7186 C.3     1  UNL1        0.0769
     18 C          66.7027   91.7219   13.5349 C.3     1  UNL1        0.0091
     19 C          67.5387   92.1978   14.6858 C.3     1  UNL1        0.0005
     20 C          68.5921   92.0974   13.6227 C.3     1  UNL1        0.0000
     21 C          68.7406   92.6387   15.4675 C.3     1  UNL1        0.0000
     22 C          66.9028   92.4513   16.0204 C.3     1  UNL1        0.0000
     23 O          58.6996   88.9236    6.5529 O.3     1  UNL1       -0.4044
     24 C          58.9114   90.1585    5.7283 C.3     1  UNL1        0.5753
     25 F          59.1232   91.3935    4.9036 F       1  UNL1       -0.1328
     26 F          57.4513   90.4835    5.8400 F       1  UNL1       -0.1328
     27 F          60.3715   89.8336    5.6167 F       1  UNL1       -0.1328
@<TRIPOS>BOND
     1    14    15    1
     2    15    16    1
     3    16    17    1
     4    17    10    1
     5    10    11    2
     6    10    12   am
     7    12     1    1
     8     1     2   ar
     9     2     3   ar
    10     3     4   ar
    11     4     5   ar
    12     5     6   ar
    13     6    23    1
    14    23    24    1
    15    24    25    1
    16    24    26    1
    17    24    27    1
    18     6     7   ar
    19     7     8   ar
    20     8     9   ar
    21    17    18    1
    22    18    19    1
    23    19    20    1
    24    19    21    1
    25    19    22    1
    26    22    15    1
    27     9     1   ar
    28     8     3   ar
    29    12    13    1
@<TRIPOS>MOLECULE
*****
 27 29 0 0 0
SMALL
GASTEIGER

@<TRIPOS>ATOM
      1 C          63.4719   85.1645   14.1238 C.ar    1  UNL1        0.1655
      2 N          62.3887   84.3632   14.7829 N.ar    1  UNL1       -0.2239
      3 C          62.3595   83.0074   14.1418 C.ar    1  UNL1        0.0894
      4 C          61.5007   81.8015   14.3828 C.ar    1  UNL1        0.0228
      5 C          61.7070   80.5589   13.5682 C.ar    1  UNL1        0.0388
      6 C          62.7722   80.5223   12.5128 C.ar    1  UNL1        0.1474
      7 C          63.6311   81.7282   12.2718 C.ar    1  UNL1        0.0452
      8 C          63.4247   82.9708   13.0864 C.ar    1  UNL1        0.0527
      9 S          64.1122   84.3039   13.0752 S.2     1  UNL1       -0.0513
     10 C          63.5215   87.6854   13.4974 C.2     1  UNL1        0.2270
     11 O          62.8177   87.3791   12.2087 O.2     1  UNL1       -0.2747
     12 N          63.8486   86.5781   14.4549 N.am    1  UNL1       -0.2641
     13 H          64.3106   86.7792   15.3008 H       1  UNL1        0.1567
     14 C          65.2790   92.3418   12.0042 C.3     1  UNL1        0.0000
     15 C          64.7770   91.4273   13.0820 C.3     1  UNL1        0.0005
     16 C          64.4003   90.0136   12.7508 C.3     1  UNL1        0.0091
     17 C          63.8983   89.0991   13.8286 C.3     1  UNL1        0.0769
     18 C          63.7730   89.5982   15.2376 C.3     1  UNL1        0.0091
     19 C          64.1497   91.0118   15.5687 C.3     1  UNL1        0.0005
     20 C          63.7277   90.5301   16.9251 C.3     1  UNL1        0.0000
     21 C          64.3799   92.2581   16.3710 C.3     1  UNL1        0.0000
     22 C          64.6517   91.9264   14.4910 C.3     1  UNL1        0.0000
     23 O          62.9786   79.2797   11.6982 O.3     1  UNL1       -0.4044
     24 C          62.6486   79.2787   10.2350 C.3     1  UNL1        0.5753
     25 F          62.3185   79.2777    8.7717 F       1  UNL1       -0.1328
     26 F          62.9612   80.7440   10.1635 F       1  UNL1       -0.1328
     27 F          62.3359   77.8134   10.3065 F       1  UNL1       -0.1328
@<TRIPOS>BOND
     1    14    15    1
     2    15    16    1
     3    16    17    1
     4    17    10    1
     5    10    11    2
     6    10    12   am
     7    12     1    1
     8     1     2   ar
     9     2     3   ar
    10     3     4   ar
    11     4     5   ar
    12     5     6   ar
    13     6    23    1
    14    23    24    1
    15    24    25    1
    16    24    26    1
    17    24    27    1
    18     6     7   ar
    19     7     8   ar
    20     8     9   ar
    21    17    18    1
    22    18    19    1
    23    19    20    1
    24    19    21    1
    25    19    22    1
    26    22    15    1
    27     9     1   ar
    28     8     3   ar
    29    12    13    1
@<TRIPOS>MOLECULE
*****
 27 29 0 0 0
SMALL
GASTEIGER

@<TRIPOS>ATOM
      1 C          64.3614   90.6784   13.3796 C.ar    1  UNL1        0.1655
      2 N          63.8964   91.0468   14.7573 N.ar    1  UNL1       -0.2239
      3 C          63.5976   89.7785   15.5003 C.ar    1  UNL1        0.0894
      4 C          63.1065   89.5240   16.8946 C.ar    1  UNL1        0.0228
      5 C          62.8958   88.1172   17.3704 C.ar    1  UNL1        0.0388
      6 C          63.1761   86.9649   16.4519 C.ar    1  UNL1        0.1474
      7 C          63.6673   87.2194   15.0577 C.ar    1  UNL1        0.0452
      8 C          63.8780   88.6262   14.5819 C.ar    1  UNL1        0.0527
      9 S          64.3500   89.1824   13.2712 S.2     1  UNL1       -0.0513
     10 C          66.1303   92.2619   12.3243 C.2     1  UNL1        0.2270
     11 O          67.0888   91.9270   13.4285 O.2     1  UNL1       -0.2747
     12 N          64.7666   91.6376   12.2999 N.am    1  UNL1       -0.2641
     13 H          64.1376   91.8574   11.5752 H       1  UNL1        0.1567
     14 C          68.8032   93.2891    7.9884 C.3     1  UNL1        0.0000
     15 C          67.8720   93.7347    9.0766 C.3     1  UNL1        0.0005
     16 C          67.4668   92.7755   10.1563 C.3     1  UNL1        0.0091
     17 C          66.5355   93.2211   11.2446 C.3     1  UNL1        0.0769
     18 C          66.0095   94.6258   11.2531 C.3     1  UNL1        0.0091
     19 C          66.4148   95.5849   10.1734 C.3     1  UNL1        0.0005
     20 C          65.5158   96.4704   10.9845 C.3     1  UNL1        0.0000
     21 C          66.5078   96.8516    9.3754 C.3     1  UNL1        0.0000
     22 C          67.3460   95.1394    9.0852 C.3     1  UNL1        0.0000
     23 O          62.9654   85.5580   16.9278 O.3     1  UNL1       -0.4044
     24 C          62.5320   84.4963   15.9610 C.3     1  UNL1        0.5753
     25 F          62.0986   83.4344   14.9941 F       1  UNL1       -0.1328
     26 F          63.9311   83.9567   15.9263 F       1  UNL1       -0.1328
     27 F          61.1328   85.0358   15.9957 F       1  UNL1       -0.1328
@<TRIPOS>BOND
     1    14    15    1
     2    15    16    1
     3    16    17    1
     4    17    10    1
     5    10    11    2
     6    10    12   am
     7    12     1    1
     8     1     2   ar
     9     2     3   ar
    10     3     4   ar
    11     4     5   ar
    12     5     6   ar
    13     6    23    1
    14    23    24    1
    15    24    25    1
    16    24    26    1
    17    24    27    1
    18     6     7   ar
    19     7     8   ar
    20     8     9   ar
    21    17    18    1
    22    18    19    1
    23    19    20    1
    24    19    21    1
    25    19    22    1
    26    22    15    1
    27     9     1   ar
    28     8     3   ar
    29    12    13    1
@<TRIPOS>MOLECULE
*****
 27 29 0 0 0
SMALL
GASTEIGER

@<TRIPOS>ATOM
      1 C          62.5639   88.9691   11.7311 C.ar    1  UNL1        0.1655
      2 N          61.5231   89.6625   10.9028 N.ar    1  UNL1       -0.2239
      3 C          61.0419   88.6975    9.8601 C.ar    1  UNL1        0.0894
      4 C          60.0228   88.8267    8.7671 C.ar    1  UNL1        0.0228
      5 C          59.7472   87.6660    7.8578 C.ar    1  UNL1        0.0388
      6 C          60.4905   86.3762    8.0416 C.ar    1  UNL1        0.1474
      7 C          61.5096   86.2470    9.1347 C.ar    1  UNL1        0.0452
      8 C          61.7852   87.4077   10.0439 C.ar    1  UNL1        0.0527
      9 S          62.7259   87.5756   11.2002 S.2     1  UNL1       -0.0513
     10 C          64.2100   90.7460   12.6706 C.2     1  UNL1        0.2270
     11 O          64.3612   91.3318   11.2980 O.2     1  UNL1       -0.2747
     12 N          63.3114   89.5647   12.8871 N.am    1  UNL1       -0.2641
     13 H          63.2122   89.1803   13.7880 H       1  UNL1        0.1567
     14 C          64.2701   92.5359   17.5484 C.3     1  UNL1        0.0000
     15 C          64.9876   92.2366   16.2656 C.3     1  UNL1        0.0005
     16 C          64.2400   91.6410   15.1095 C.3     1  UNL1        0.0091
     17 C          64.9576   91.3416   13.8267 C.3     1  UNL1        0.0769
     18 C          66.4225   91.6378   13.7000 C.3     1  UNL1        0.0091
     19 C          67.1700   92.2334   14.8560 C.3     1  UNL1        0.0005
     20 C          68.2811   92.1281   13.8538 C.3     1  UNL1        0.0000
     21 C          68.3034   92.7924   15.6640 C.3     1  UNL1        0.0000
     22 C          66.4526   92.5328   16.1388 C.3     1  UNL1        0.0000
     23 O          60.2148   85.2155    7.1323 O.3     1  UNL1       -0.4044
     24 C          61.3302   84.6039    6.3375 C.3     1  UNL1        0.5753
     25 F          62.4458   83.9923    5.5427 F       1  UNL1       -0.1328
     26 F          62.3106   85.5193    7.0090 F       1  UNL1       -0.1328
     27 F          60.3499   83.6885    5.6660 F       1  UNL1       -0.1328
@<TRIPOS>BOND
     1    14    15    1
     2    15    16    1
     3    16    17    1
     4    17    10    1
     5    10    11    2
     6    10    12   am
     7    12     1    1
     8     1     2   ar
     9     2     3   ar
    10     3     4   ar
    11     4     5   ar
    12     5     6   ar
    13     6    23    1
    14    23    24    1
    15    24    25    1
    16    24    26    1
    17    24    27    1
    18     6     7   ar
    19     7     8   ar
    20     8     9   ar
    21    17    18    1
    22    18    19    1
    23    19    20    1
    24    19    21    1
    25    19    22    1
    26    22    15    1
    27     9     1   ar
    28     8     3   ar
    29    12    13    1
@<TRIPOS>MOLECULE
*****
 27 29 0 0 0
SMALL
GASTEIGER

@<TRIPOS>ATOM
      1 C          63.9957   85.9493   14.4392 C.ar    1  UNL1        0.1655
      2 N          62.7803   85.2862   15.0163 N.ar    1  UNL1       -0.2239
      3 C          62.6942   83.9008   14.4479 C.ar    1  UNL1        0.0894
      4 C          61.7076   82.7901   14.6558 C.ar    1  UNL1        0.0228
      5 C          61.8834   81.4864   13.9352 C.ar    1  UNL1        0.0388
      6 C          63.0456   81.2932   13.0068 C.ar    1  UNL1        0.1474
      7 C          64.0321   82.4038   12.7990 C.ar    1  UNL1        0.0452
      8 C          63.8564   83.7076   13.5195 C.ar    1  UNL1        0.0527
      9 S          64.6608   84.9737   13.5142 S.2     1  UNL1       -0.0513
     10 C          64.0731   88.4738   13.8301 C.2     1  UNL1        0.2270
     11 O          63.2143   88.2103   12.6288 O.2     1  UNL1       -0.2747
     12 N          64.4638   87.3433   14.7353 N.am    1  UNL1       -0.2641
     13 H          65.0275   87.5163   15.5237 H       1  UNL1        0.1567
     14 C          64.8123   92.3498   17.2109 C.3     1  UNL1        0.0000
     15 C          64.9109   91.8058   15.8165 C.3     1  UNL1        0.0005
     16 C          64.4427   90.4118   15.5205 C.3     1  UNL1        0.0091
     17 C          64.5413   89.8678   14.1261 C.3     1  UNL1        0.0769
     18 C          65.1079   90.7177   13.0277 C.3     1  UNL1        0.0091
     19 C          65.5761   92.1117   13.3238 C.3     1  UNL1        0.0005
     20 C          65.8730   92.0436   11.8550 C.3     1  UNL1        0.0000
     21 C          66.1473   93.4820   13.1097 C.3     1  UNL1        0.0000
     22 C          65.4775   92.6558   14.7181 C.3     1  UNL1        0.0000
     23 O          63.2213   79.9893   12.2863 O.3     1  UNL1       -0.4044
     24 C          62.8761   79.8846   10.8303 C.3     1  UNL1        0.5753
     25 F          62.5309   79.7799    9.3743 F       1  UNL1       -0.1328
     26 F          63.1695   81.3452   10.6557 F       1  UNL1       -0.1328
     27 F          62.5827   78.4240   11.0050 F       1  UNL1       -0.1328
@<TRIPOS>BOND
     1    14    15    1
     2    15    16    1
     3    16    17    1
     4    17    10    1
     5    10    11    2
     6    10    12   am
     7    12     1    1
     8     1     2   ar
     9     2     3   ar
    10     3     4   ar
    11     4     5   ar
    12     5     6   ar
    13     6    23    1
    14    23    24    1
    15    24    25    1
    16    24    26    1
    17    24    27    1
    18     6     7   ar
    19     7     8   ar
    20     8     9   ar
    21    17    18    1
    22    18    19    1
    23    19    20    1
    24    19    21    1
    25    19    22    1
    26    22    15    1
    27     9     1   ar
    28     8     3   ar
    29    12    13    1
