@<TRIPOS>MOLECULE
*****
 41 45 0 0 0
SMALL
GASTEIGER

@<TRIPOS>ATOM
      1 C          60.1934   89.6761    6.9973 C.ar    1  UNL1        0.0479
      2 C          61.1551   90.4248    6.1228 C.ar    1  UNL1        0.0145
      3 C          60.6446   91.2331    4.9669 C.ar    1  UNL1        0.0013
      4 C          59.1724   91.2927    4.6854 C.ar    1  UNL1        0.0001
      5 C          58.2108   90.5440    5.5598 C.ar    1  UNL1        0.0013
      6 C          58.7212   89.7357    6.7158 C.ar    1  UNL1        0.0145
      7 N          61.7248   87.2513   10.4650 N.3     1  UNL1       -0.1520
      8 C          61.9420   88.7352   10.4333 C.3     1  UNL1        0.1172
      9 C          61.4316   89.5435    9.2774 C.3     1  UNL1        0.1099
     10 N          60.7038   88.8679    8.1531 N.pl3   1  UNL1       -0.3045
     11 C          60.4866   87.3841    8.1847 C.3     1  UNL1        0.1099
     12 C          60.9971   86.5758    9.3407 C.3     1  UNL1        0.1172
     13 O          62.7946   87.6876   12.2440 O.2     1  UNL1       -0.1528
     14 S          62.2353   86.4431   11.6209 S.O2    1  UNL1        0.0635
     15 O          61.6760   85.1986   10.9977 O.2     1  UNL1       -0.1528
     16 C          62.7458   85.6348   12.7768 C.ar    1  UNL1        0.1252
     17 C          63.8358   86.1809   13.6506 C.ar    1  UNL1        0.0201
     18 C          64.3462   85.3726   14.8065 C.ar    1  UNL1        0.0045
     19 C          63.7666   84.0182   15.0885 C.ar    1  UNL1        0.0373
     20 C          62.6766   83.4720   14.2147 C.ar    1  UNL1        0.1481
     21 C          62.1662   84.2803   13.0588 C.ar    1  UNL1        0.0571
     22 O          62.0971   82.1175   14.4967 O.3     1  UNL1       -0.4044
     23 C          62.2349   81.0176   13.4863 C.3     1  UNL1        0.5753
     24 F          62.3726   79.9176   12.4758 F       1  UNL1       -0.1328
     25 F          63.7267   81.1692   13.5247 F       1  UNL1       -0.1328
     26 F          60.7431   80.8660   13.4478 F       1  UNL1       -0.1328
     27 C          58.6620   92.1009    3.5295 C.2     1  UNL1        0.0000
     28 C          59.5941   92.5013    2.4246 C.2     1  UNL1        0.0000
     29 C          59.0835   93.3096    1.2687 C.ar    1  UNL1        0.0006
     30 C          59.6381   94.6787    1.0078 C.ar    1  UNL1        0.0114
     31 C          59.1275   95.4869   -0.1482 C.ar    1  UNL1        0.0574
     32 CL         59.6821   96.8560   -0.4091 Cl      1  UNL1       -0.0823
     33 C          58.0624   94.9261   -1.0431 C.ar    1  UNL1        0.0090
     34 C          57.5078   93.5570   -0.7822 C.ar    1  UNL1        0.0013
     35 C          58.0184   92.7488    0.3737 C.ar    1  UNL1       -0.0023
     36 C          56.4427   92.9961   -1.6771 C.3     1  UNL1        0.1344
     37 N          56.7680   92.6384   -3.0971 N.ar    1  UNL1       -0.3036
     38 C          57.3300   93.5660   -4.1334 C.ar    1  UNL1        0.0983
     39 C          57.4977   92.7912   -5.4069 C.ar    1  UNL1        0.1193
     40 N          57.0394   91.3848   -5.1576 N.ar    1  UNL1       -0.2223
     41 C          56.5884   91.2904   -3.7301 C.ar    1  UNL1        0.1789
@<TRIPOS>BOND
     1    13    14    2
     2    14    15    2
     3    14    16    1
     4    16    17   ar
     5    17    18   ar
     6    18    19   ar
     7    19    20   ar
     8    20    22    1
     9    22    23    1
    10    23    24    1
    11    23    25    1
    12    23    26    1
    13    20    21   ar
    14    14     7    1
    15     7     8    1
    16     8     9    1
    17     9    10    1
    18    10     1    1
    19     1     2   ar
    20     2     3   ar
    21     3     4   ar
    22     4    27    1
    23    27    28    2
    24    28    29    1
    25    29    30   ar
    26    30    31   ar
    27    31    32    1
    28    31    33   ar
    29    33    34   ar
    30    34    36    1
    31    36    37    1
    32    37    38   ar
    33    38    39   ar
    34    39    40   ar
    35    40    41   ar
    36    34    35   ar
    37     4     5   ar
    38     5     6   ar
    39    10    11    1
    40    11    12    1
    41    21    16   ar
    42    12     7    1
    43     6     1   ar
    44    35    29   ar
    45    41    37   ar
@<TRIPOS>MOLECULE
*****
 41 45 0 0 0
SMALL
GASTEIGER

@<TRIPOS>ATOM
      1 C          60.3240   89.1830    7.1241 C.ar    1  UNL1        0.0479
      2 C          60.9166   89.6408    8.4238 C.ar    1  UNL1        0.0145
      3 C          61.1007   88.6658    9.5488 C.ar    1  UNL1        0.0013
      4 C          60.6922   87.2332    9.3741 C.ar    1  UNL1        0.0001
      5 C          60.0996   86.7754    8.0744 C.ar    1  UNL1        0.0013
      6 C          59.9155   87.7504    6.9493 C.ar    1  UNL1        0.0145
      7 N          59.7718   92.1079    3.7491 N.3     1  UNL1       -0.1520
      8 C          58.5909   91.6727    4.5652 C.3     1  UNL1        0.1172
      9 C          58.7749   90.6977    5.6902 C.3     1  UNL1        0.1099
     10 N          60.1399   90.1580    5.9991 N.pl3   1  UNL1       -0.3045
     11 C          61.3209   90.5931    5.1831 C.3     1  UNL1        0.1099
     12 C          61.1368   91.5681    4.0580 C.3     1  UNL1        0.1172
     13 O          59.3934   91.9433    1.6684 O.2     1  UNL1       -0.1528
     14 S          59.5878   93.0828    2.6242 S.O2    1  UNL1        0.0635
     15 O          59.7822   94.2224    3.5799 O.2     1  UNL1       -0.1528
     16 C          59.4037   94.0578    1.4992 C.ar    1  UNL1        0.1252
     17 C          59.9764   95.4402    1.6035 C.ar    1  UNL1        0.0201
     18 C          59.7923   96.4152    0.4786 C.ar    1  UNL1        0.0045
     19 C          59.0355   96.0077   -0.7507 C.ar    1  UNL1        0.0373
     20 C          58.4628   94.6253   -0.8551 C.ar    1  UNL1        0.1481
     21 C          58.6469   93.6504    0.2698 C.ar    1  UNL1        0.0571
     22 O          57.7061   94.2179   -2.0844 O.3     1  UNL1       -0.4044
     23 C          56.7845   93.0352   -2.0402 C.3     1  UNL1        0.5753
     24 F          55.8628   91.8525   -1.9961 F       1  UNL1       -0.1328
     25 F          55.7206   93.8877   -1.4146 F       1  UNL1       -0.1328
     26 F          57.8483   92.1828   -2.6659 F       1  UNL1       -0.1328
     27 C          60.8762   86.2582   10.4990 C.2     1  UNL1        0.0000
     28 C          62.2188   85.6333   10.7379 C.2     1  UNL1        0.0000
     29 C          62.4028   84.6584   11.8629 C.ar    1  UNL1        0.0006
     30 C          62.3414   83.1838   11.5950 C.ar    1  UNL1        0.0114
     31 C          62.5255   82.2088   12.7201 C.ar    1  UNL1        0.0574
     32 CL         62.4641   80.7342   12.4522 Cl      1  UNL1       -0.0823
     33 C          62.7709   82.7085   14.1129 C.ar    1  UNL1        0.0090
     34 C          62.8323   84.1832   14.3808 C.ar    1  UNL1        0.0013
     35 C          62.6482   85.1581   13.2558 C.ar    1  UNL1       -0.0023
     36 C          63.0777   84.6829   15.7736 C.3     1  UNL1        0.1344
     37 N          63.2208   86.1542   16.0283 N.ar    1  UNL1       -0.3036
     38 C          62.6902   86.8988   17.2173 C.ar    1  UNL1        0.0983
     39 C          63.0611   88.3441   17.0625 C.ar    1  UNL1        0.1193
     40 N          63.8210   88.4924   15.7777 N.ar    1  UNL1       -0.2223
     41 C          63.9197   87.1390   15.1386 C.ar    1  UNL1        0.1789
@<TRIPOS>BOND
     1    13    14    2
     2    14    15    2
     3    14    16    1
     4    16    17   ar
     5    17    18   ar
     6    18    19   ar
     7    19    20   ar
     8    20    22    1
     9    22    23    1
    10    23    24    1
    11    23    25    1
    12    23    26    1
    13    20    21   ar
    14    14     7    1
    15     7     8    1
    16     8     9    1
    17     9    10    1
    18    10     1    1
    19     1     2   ar
    20     2     3   ar
    21     3     4   ar
    22     4    27    1
    23    27    28    2
    24    28    29    1
    25    29    30   ar
    26    30    31   ar
    27    31    32    1
    28    31    33   ar
    29    33    34   ar
    30    34    36    1
    31    36    37    1
    32    37    38   ar
    33    38    39   ar
    34    39    40   ar
    35    40    41   ar
    36    34    35   ar
    37     4     5   ar
    38     5     6   ar
    39    10    11    1
    40    11    12    1
    41    21    16   ar
    42    12     7    1
    43     6     1   ar
    44    35    29   ar
    45    41    37   ar
@<TRIPOS>MOLECULE
*****
 41 45 0 0 0
SMALL
GASTEIGER

@<TRIPOS>ATOM
      1 C          60.0881   89.5153    6.7377 C.ar    1  UNL1        0.0479
      2 C          61.0964   90.2116    5.8725 C.ar    1  UNL1        0.0145
      3 C          60.6392   91.1417    4.7880 C.ar    1  UNL1        0.0013
      4 C          59.1739   91.3754    4.5687 C.ar    1  UNL1        0.0001
      5 C          58.1656   90.6791    5.4339 C.ar    1  UNL1        0.0013
      6 C          58.6227   89.7490    6.5184 C.ar    1  UNL1        0.0145
      7 N          61.4595   86.7252    9.9911 N.3     1  UNL1       -0.1520
      8 C          61.5994   88.2083   10.1666 C.3     1  UNL1        0.1172
      9 C          61.1423   89.1383    9.0822 C.3     1  UNL1        0.1099
     10 N          60.5452   88.5853    7.8222 N.pl3   1  UNL1       -0.3045
     11 C          60.4053   87.1022    7.6466 C.3     1  UNL1        0.1099
     12 C          60.8624   86.1721    8.7311 C.3     1  UNL1        0.1172
     13 O          61.1377   86.5874   12.0833 O.2     1  UNL1       -0.1528
     14 S          61.9166   85.7952   11.0755 S.O2    1  UNL1        0.0635
     15 O          62.6955   85.0029   10.0678 O.2     1  UNL1       -0.1528
     16 C          62.3738   84.8651   12.1600 C.ar    1  UNL1        0.1252
     17 C          62.2911   83.3809   11.9594 C.ar    1  UNL1        0.0201
     18 C          62.7483   82.4509   13.0438 C.ar    1  UNL1        0.0045
     19 C          63.2881   83.0051   14.3289 C.ar    1  UNL1        0.0373
     20 C          63.3708   84.4893   14.5295 C.ar    1  UNL1        0.1481
     21 C          62.9136   85.4193   13.4451 C.ar    1  UNL1        0.0571
     22 O          63.9106   85.0435   15.8146 O.3     1  UNL1       -0.4044
     23 C          63.5943   86.4541   16.2146 C.3     1  UNL1        0.5753
     24 F          63.2780   87.8648   16.6146 F       1  UNL1       -0.1328
     25 F          64.7211   86.9498   15.3575 F       1  UNL1       -0.1328
     26 F          62.4676   85.9585   17.0717 F       1  UNL1       -0.1328
     27 C          58.7168   92.3054    3.4843 C.2     1  UNL1        0.0000
     28 C          59.4497   92.3501    2.1763 C.2     1  UNL1        0.0000
     29 C          58.9925   93.2802    1.0918 C.ar    1  UNL1        0.0006
     30 C          59.6780   94.6001    0.8975 C.ar    1  UNL1        0.0114
     31 C          59.2208   95.5302   -0.1870 C.ar    1  UNL1        0.0574
     32 CL         59.9063   96.8501   -0.3814 Cl      1  UNL1       -0.0823
     33 C          58.0781   95.1403   -1.0771 C.ar    1  UNL1        0.0090
     34 C          57.3926   93.8202   -0.8827 C.ar    1  UNL1        0.0013
     35 C          57.8498   92.8903    0.2018 C.ar    1  UNL1       -0.0023
     36 C          56.2499   93.4303   -1.7727 C.3     1  UNL1        0.1344
     37 N          55.5526   94.4713   -2.5974 N.ar    1  UNL1       -0.3036
     38 C          54.4422   95.3662   -2.1324 C.ar    1  UNL1        0.0983
     39 C          54.0465   96.2482   -3.2794 C.ar    1  UNL1        0.1193
     40 N          54.9123   95.8982   -4.4533 N.ar    1  UNL1       -0.2223
     41 C          55.8431   94.8001   -4.0318 C.ar    1  UNL1        0.1789
@<TRIPOS>BOND
     1    13    14    2
     2    14    15    2
     3    14    16    1
     4    16    17   ar
     5    17    18   ar
     6    18    19   ar
     7    19    20   ar
     8    20    22    1
     9    22    23    1
    10    23    24    1
    11    23    25    1
    12    23    26    1
    13    20    21   ar
    14    14     7    1
    15     7     8    1
    16     8     9    1
    17     9    10    1
    18    10     1    1
    19     1     2   ar
    20     2     3   ar
    21     3     4   ar
    22     4    27    1
    23    27    28    2
    24    28    29    1
    25    29    30   ar
    26    30    31   ar
    27    31    32    1
    28    31    33   ar
    29    33    34   ar
    30    34    36    1
    31    36    37    1
    32    37    38   ar
    33    38    39   ar
    34    39    40   ar
    35    40    41   ar
    36    34    35   ar
    37     4     5   ar
    38     5     6   ar
    39    10    11    1
    40    11    12    1
    41    21    16   ar
    42    12     7    1
    43     6     1   ar
    44    35    29   ar
    45    41    37   ar
@<TRIPOS>MOLECULE
*****
 41 45 0 0 0
SMALL
GASTEIGER

@<TRIPOS>ATOM
      1 C          60.2483   89.7264    7.0059 C.ar    1  UNL1        0.0479
      2 C          61.2171   90.4570    6.1240 C.ar    1  UNL1        0.0145
      3 C          60.7133   91.2705    4.9689 C.ar    1  UNL1        0.0013
      4 C          59.2408   91.3535    4.6956 C.ar    1  UNL1        0.0001
      5 C          58.2720   90.6230    5.5775 C.ar    1  UNL1        0.0013
      6 C          58.7758   89.8094    6.7327 C.ar    1  UNL1        0.0145
      7 N          61.7597   87.2857   10.4712 N.3     1  UNL1       -0.1520
      8 C          61.2044   86.6013    9.2575 C.3     1  UNL1        0.1172
      9 C          60.7006   87.4148    8.1024 C.3     1  UNL1        0.1099
     10 N          60.7521   88.9128    8.1610 N.pl3   1  UNL1       -0.3045
     11 C          61.3075   89.5972    9.3747 C.3     1  UNL1        0.1099
     12 C          61.8113   88.7836   10.5299 C.3     1  UNL1        0.1172
     13 O          62.9308   87.6901   12.1932 O.2     1  UNL1       -0.1528
     14 S          62.2635   86.4721   11.6263 S.O2    1  UNL1        0.0635
     15 O          61.5963   85.2542   11.0595 O.2     1  UNL1       -0.1528
     16 C          62.7673   85.6585   12.7815 C.ar    1  UNL1        0.1252
     17 C          63.8001   86.2296   13.7073 C.ar    1  UNL1        0.0201
     18 C          64.3038   85.4160   14.8624 C.ar    1  UNL1        0.0045
     19 C          63.7748   84.0312   15.0916 C.ar    1  UNL1        0.0373
     20 C          62.7421   83.4601   14.1657 C.ar    1  UNL1        0.1481
     21 C          62.2384   84.2737   13.0107 C.ar    1  UNL1        0.0571
     22 O          62.2131   82.0753   14.3950 O.3     1  UNL1       -0.4044
     23 C          62.3830   81.0232   13.3394 C.3     1  UNL1        0.5753
     24 F          62.5530   79.9711   12.2837 F       1  UNL1       -0.1328
     25 F          60.9145   80.7240   13.4012 F       1  UNL1       -0.1328
     26 F          63.8515   81.3225   13.2775 F       1  UNL1       -0.1328
     27 C          58.7370   92.1671    3.5406 C.2     1  UNL1        0.0000
     28 C          59.6202   92.4104    2.3528 C.2     1  UNL1        0.0000
     29 C          59.1163   93.2240    1.1977 C.ar    1  UNL1        0.0006
     30 C          57.9691   92.7230    0.3712 C.ar    1  UNL1        0.0114
     31 C          57.4653   93.5366   -0.7839 C.ar    1  UNL1        0.0574
     32 CL         56.3181   93.0357   -1.6103 Cl      1  UNL1       -0.0823
     33 C          58.1086   94.8512   -1.1125 C.ar    1  UNL1        0.0090
     34 C          59.2558   95.3522   -0.2860 C.ar    1  UNL1        0.0013
     35 C          59.7596   94.5386    0.8690 C.ar    1  UNL1       -0.0023
     36 C          59.8992   96.6667   -0.6147 C.3     1  UNL1        0.1344
     37 N          60.9628   96.7381   -1.6700 N.ar    1  UNL1       -0.3036
     38 C          60.7328   96.7930   -3.1513 C.ar    1  UNL1        0.0983
     39 C          62.0710   96.8560   -3.8261 C.ar    1  UNL1        0.1193
     40 N          63.1280   96.8400   -2.7619 N.ar    1  UNL1       -0.2223
     41 C          62.4431   96.7672   -1.4294 C.ar    1  UNL1        0.1789
@<TRIPOS>BOND
     1    13    14    2
     2    14    15    2
     3    14    16    1
     4    16    17   ar
     5    17    18   ar
     6    18    19   ar
     7    19    20   ar
     8    20    22    1
     9    22    23    1
    10    23    24    1
    11    23    25    1
    12    23    26    1
    13    20    21   ar
    14    14     7    1
    15     7     8    1
    16     8     9    1
    17     9    10    1
    18    10     1    1
    19     1     2   ar
    20     2     3   ar
    21     3     4   ar
    22     4    27    1
    23    27    28    2
    24    28    29    1
    25    29    30   ar
    26    30    31   ar
    27    31    32    1
    28    31    33   ar
    29    33    34   ar
    30    34    36    1
    31    36    37    1
    32    37    38   ar
    33    38    39   ar
    34    39    40   ar
    35    40    41   ar
    36    34    35   ar
    37     4     5   ar
    38     5     6   ar
    39    10    11    1
    40    11    12    1
    41    21    16   ar
    42    12     7    1
    43     6     1   ar
    44    35    29   ar
    45    41    37   ar
@<TRIPOS>MOLECULE
*****
 41 45 0 0 0
SMALL
GASTEIGER

@<TRIPOS>ATOM
      1 C          60.0275   89.7303    6.6057 C.ar    1  UNL1        0.0479
      2 C          61.0299   90.3450    5.6744 C.ar    1  UNL1        0.0145
      3 C          60.5705   91.2449    4.5658 C.ar    1  UNL1        0.0013
      4 C          59.1085   91.5301    4.3884 C.ar    1  UNL1        0.0001
      5 C          58.1061   90.9154    5.3196 C.ar    1  UNL1        0.0013
      6 C          58.5656   90.0154    6.4283 C.ar    1  UNL1        0.0145
      7 N          61.4059   87.0306    9.9316 N.3     1  UNL1       -0.1520
      8 C          61.3732   88.5162   10.1362 C.3     1  UNL1        0.1172
      9 C          60.9138   89.4161    9.0276 C.3     1  UNL1        0.1099
     10 N          60.4870   88.8304    7.7143 N.pl3   1  UNL1       -0.3045
     11 C          60.5196   87.3448    7.5096 C.3     1  UNL1        0.1099
     12 C          60.9791   86.4448    8.6183 C.3     1  UNL1        0.1172
     13 O          62.4495   85.1864   10.0317 O.2     1  UNL1       -0.1528
     14 S          61.8654   86.1307   11.0402 S.O2    1  UNL1        0.0635
     15 O          61.2813   87.0749   12.0487 O.2     1  UNL1       -0.1528
     16 C          62.3249   85.2308   12.1489 C.ar    1  UNL1        0.1252
     17 C          62.1200   83.7485   12.0454 C.ar    1  UNL1        0.0201
     18 C          62.5795   82.8487   13.1541 C.ar    1  UNL1        0.0045
     19 C          63.2439   83.4312   14.3662 C.ar    1  UNL1        0.0373
     20 C          63.4487   84.9135   14.4697 C.ar    1  UNL1        0.1481
     21 C          62.9892   85.8133   13.3611 C.ar    1  UNL1        0.0571
     22 O          64.1131   85.4960   15.6819 O.3     1  UNL1       -0.4044
     23 C          63.3066   86.2769   16.6767 C.3     1  UNL1        0.5753
     24 F          62.5001   87.0578   17.6716 F       1  UNL1       -0.1328
     25 F          62.8573   84.9970   17.3171 F       1  UNL1       -0.1328
     26 F          63.7559   87.5567   16.0364 F       1  UNL1       -0.1328
     27 C          58.6491   92.4299    3.2798 C.2     1  UNL1        0.0000
     28 C          59.5068   92.6203    2.0640 C.2     1  UNL1        0.0000
     29 C          59.0472   93.5202    0.9554 C.ar    1  UNL1        0.0006
     30 C          57.7866   93.2041    0.2065 C.ar    1  UNL1        0.0114
     31 C          57.3270   94.1040   -0.9021 C.ar    1  UNL1        0.0574
     32 CL         56.0664   93.7879   -1.6510 Cl      1  UNL1       -0.0823
     33 C          58.1282   95.3200   -1.2618 C.ar    1  UNL1        0.0090
     34 C          59.3889   95.6362   -0.5129 C.ar    1  UNL1        0.0013
     35 C          59.8484   94.7362    0.5957 C.ar    1  UNL1       -0.0023
     36 C          60.1900   96.8522   -0.8726 C.3     1  UNL1        0.1344
     37 N          61.5138   96.7013   -1.5618 N.ar    1  UNL1       -0.3036
     38 C          61.7241   96.5093   -3.0346 C.ar    1  UNL1        0.0983
     39 C          63.1999   96.4053   -3.2823 C.ar    1  UNL1        0.1193
     40 N          63.9016   96.5331   -1.9626 N.ar    1  UNL1       -0.2223
     41 C          62.8595   96.7161   -0.8994 C.ar    1  UNL1        0.1789
@<TRIPOS>BOND
     1    13    14    2
     2    14    15    2
     3    14    16    1
     4    16    17   ar
     5    17    18   ar
     6    18    19   ar
     7    19    20   ar
     8    20    22    1
     9    22    23    1
    10    23    24    1
    11    23    25    1
    12    23    26    1
    13    20    21   ar
    14    14     7    1
    15     7     8    1
    16     8     9    1
    17     9    10    1
    18    10     1    1
    19     1     2   ar
    20     2     3   ar
    21     3     4   ar
    22     4    27    1
    23    27    28    2
    24    28    29    1
    25    29    30   ar
    26    30    31   ar
    27    31    32    1
    28    31    33   ar
    29    33    34   ar
    30    34    36    1
    31    36    37    1
    32    37    38   ar
    33    38    39   ar
    34    39    40   ar
    35    40    41   ar
    36    34    35   ar
    37     4     5   ar
    38     5     6   ar
    39    10    11    1
    40    11    12    1
    41    21    16   ar
    42    12     7    1
    43     6     1   ar
    44    35    29   ar
    45    41    37   ar
@<TRIPOS>MOLECULE
*****
 41 45 0 0 0
SMALL
GASTEIGER

@<TRIPOS>ATOM
      1 C          60.3651   89.1222    7.6387 C.ar    1  UNL1        0.0479
      2 C          60.4566   89.7331    9.0057 C.ar    1  UNL1        0.0145
      3 C          60.6559   88.8572   10.2069 C.ar    1  UNL1        0.0013
      4 C          60.7637   87.3703   10.0412 C.ar    1  UNL1        0.0001
      5 C          60.6723   86.7593    8.6744 C.ar    1  UNL1        0.0013
      6 C          60.4730   87.6352    7.4731 C.ar    1  UNL1        0.0145
      7 N          59.7673   91.7501    4.0350 N.3     1  UNL1       -0.1520
      8 C          58.5859   91.3160    4.8511 C.3     1  UNL1        0.1172
      9 C          58.7852   90.4401    6.0523 C.3     1  UNL1        0.1099
     10 N          60.1659   89.9981    6.4375 N.pl3   1  UNL1       -0.3045
     11 C          61.3473   90.4321    5.6215 C.3     1  UNL1        0.1099
     12 C          61.1480   91.3081    4.4202 C.3     1  UNL1        0.1172
     13 O          58.0884   92.3915    2.9083 O.2     1  UNL1       -0.1528
     14 S          59.5680   92.6260    2.8338 S.O2    1  UNL1        0.0635
     15 O          61.0477   92.8605    2.7593 O.2     1  UNL1       -0.1528
     16 C          59.3688   93.5020    1.6325 C.ar    1  UNL1        0.1252
     17 C          60.0123   94.8558    1.5765 C.ar    1  UNL1        0.0201
     18 C          59.8130   95.7317    0.3752 C.ar    1  UNL1        0.0045
     19 C          58.9702   95.2538   -0.7699 C.ar    1  UNL1        0.0373
     20 C          58.3267   93.9001   -0.7139 C.ar    1  UNL1        0.1481
     21 C          58.5260   93.0242    0.4874 C.ar    1  UNL1        0.0571
     22 O          57.4840   93.4223   -1.8590 O.3     1  UNL1       -0.4044
     23 C          58.0211   93.4746   -3.2585 C.3     1  UNL1        0.5753
     24 F          58.5582   93.5269   -4.6582 F       1  UNL1       -0.1328
     25 F          58.8584   92.2610   -2.9826 F       1  UNL1       -0.1328
     26 F          57.1838   94.6881   -3.5345 F       1  UNL1       -0.1328
     27 C          60.9630   86.4943   11.2424 C.2     1  UNL1        0.0000
     28 C          62.0738   85.4864   11.2598 C.2     1  UNL1        0.0000
     29 C          62.2731   84.6105   12.4611 C.ar    1  UNL1        0.0006
     30 C          62.3041   85.2152   13.8334 C.ar    1  UNL1        0.0114
     31 C          62.5034   84.3392   15.0347 C.ar    1  UNL1        0.0574
     32 CL         62.5344   84.9439   16.4070 Cl      1  UNL1       -0.0823
     33 C          62.6716   82.8585   14.8636 C.ar    1  UNL1        0.0090
     34 C          62.6406   82.2538   13.4911 C.ar    1  UNL1        0.0013
     35 C          62.4413   83.1298   12.2899 C.ar    1  UNL1       -0.0023
     36 C          62.8088   80.7731   13.3200 C.3     1  UNL1        0.1344
     37 N          62.8484   80.1769   11.9441 N.ar    1  UNL1       -0.3036
     38 C          63.1186   80.9192   10.6690 C.ar    1  UNL1        0.0983
     39 C          63.0619   79.9347    9.5386 C.ar    1  UNL1        0.1193
     40 N          62.7566   78.5840   10.1152 N.ar    1  UNL1       -0.2223
     41 C          62.6247   78.7337   11.6019 C.ar    1  UNL1        0.1789
@<TRIPOS>BOND
     1    13    14    2
     2    14    15    2
     3    14    16    1
     4    16    17   ar
     5    17    18   ar
     6    18    19   ar
     7    19    20   ar
     8    20    22    1
     9    22    23    1
    10    23    24    1
    11    23    25    1
    12    23    26    1
    13    20    21   ar
    14    14     7    1
    15     7     8    1
    16     8     9    1
    17     9    10    1
    18    10     1    1
    19     1     2   ar
    20     2     3   ar
    21     3     4   ar
    22     4    27    1
    23    27    28    2
    24    28    29    1
    25    29    30   ar
    26    30    31   ar
    27    31    32    1
    28    31    33   ar
    29    33    34   ar
    30    34    36    1
    31    36    37    1
    32    37    38   ar
    33    38    39   ar
    34    39    40   ar
    35    40    41   ar
    36    34    35   ar
    37     4     5   ar
    38     5     6   ar
    39    10    11    1
    40    11    12    1
    41    21    16   ar
    42    12     7    1
    43     6     1   ar
    44    35    29   ar
    45    41    37   ar
