@<TRIPOS>MOLECULE
*****
 50 53 0 0 0
SMALL
GASTEIGER

@<TRIPOS>ATOM
      1 C          62.8031   89.9342   11.0376 C.3     1  UNL1        0.0760
      2 C          61.1873   88.1719   10.0210 C.2     1  UNL1        0.2403
      3 O          60.1073   89.2096    9.9385 O.2     1  UNL1       -0.2733
      4 N          62.5352   88.5342   10.5705 N.am    1  UNL1       -0.3043
      5 H          63.2440   87.8531   10.6247 H       1  UNL1        0.1494
      6 C          60.9194   86.7718    9.5539 C.3     1  UNL1        0.1496
      7 N          63.2087   83.7589   10.7503 N.am    1  UNL1       -0.2567
      8 C          64.4853   83.0780   10.3542 C.3     1  UNL1        0.1168
      9 C          62.7023   84.9249    9.9541 C.2     1  UNL1        0.3046
     10 O          63.4725   85.4101    8.7618 O.2     1  UNL1       -0.2526
     11 N          61.4258   85.6058   10.3502 N.am    1  UNL1       -0.2824
     12 H          60.9203   85.2874   11.1327 H       1  UNL1        0.1514
     13 C          62.4386   83.2738   11.9425 C.3     1  UNL1        0.1413
     14 C          62.4680   85.3623   16.7921 C.3     1  UNL1        0.0594
     15 C          62.8842   84.6253   15.5537 C.ar    1  UNL1        0.0883
     16 N          62.0707   84.4738   14.3026 N.ar    1  UNL1       -0.2453
     17 C          62.8707   83.6654   13.3246 C.ar    1  UNL1        0.0858
     18 C          64.1786   83.3173   13.9712 C.ar    1  UNL1        0.0530
     19 S          64.1870   83.9106   15.3489 S.2     1  UNL1       -0.0705
     20 C          60.1452   86.5378    8.2907 C.3     1  UNL1        0.0270
     21 C          58.7877   87.1521    8.1183 C.3     1  UNL1        0.0022
     22 C          60.7286   85.6896    7.1998 C.3     1  UNL1        0.0022
     23 C          62.4075   90.3512   12.4232 C.3     1  UNL1        0.0459
     24 C          62.9755   89.6354   13.6127 C.ar    1  UNL1       -0.0205
     25 C          62.6622   90.1173   14.9981 C.ar    1  UNL1       -0.0042
     26 C          63.2302   89.4015   16.1876 C.ar    1  UNL1       -0.0003
     27 C          64.1115   88.2036   15.9917 C.ar    1  UNL1       -0.0000
     28 C          64.4249   87.7216   14.6062 C.ar    1  UNL1       -0.0003
     29 C          63.8569   88.4375   13.4167 C.ar    1  UNL1       -0.0042
     30 C          63.4664   90.9173   10.1191 C.3     1  UNL1        0.0216
     31 C          63.9127   92.2500   10.6431 C.3     1  UNL1        0.0217
     32 C          65.2724   92.3965   11.2594 C.3     1  UNL1        0.0792
     33 N          66.1472   93.5543   10.8795 N.am    1  UNL1       -0.2720
     34 C          67.3973   93.3203   10.0841 C.2     1  UNL1        0.4019
     35 O          67.7725   91.9287    9.6686 O.2     1  UNL1       -0.2264
     36 H          65.9010   94.4676   11.1522 H       1  UNL1        0.1527
     37 O          68.2721   94.4780    9.7041 O.3     1  UNL1       -0.4291
     38 C          67.7527   95.8804    9.8203 C.3     1  UNL1        0.2447
     39 C          66.4705   96.2638    9.1429 C.ar    1  UNL1        0.0714
     40 C          66.2844   96.4921    7.6721 C.ar    1  UNL1        0.1053
     41 N          64.8481   96.8557    7.4374 N.ar    1  UNL1       -0.2350
     42 C          64.1466   96.8520    8.7633 C.ar    1  UNL1        0.1343
     43 S          65.1493   96.4863    9.8172 S.2     1  UNL1       -0.0652
     44 C          65.7572   91.3854   12.2556 C.3     1  UNL1        0.0460
     45 C          66.3726   91.8392   13.5461 C.ar    1  UNL1       -0.0205
     46 C          67.8554   92.0467   13.6378 C.ar    1  UNL1       -0.0042
     47 C          68.4707   92.5005   14.9283 C.ar    1  UNL1       -0.0003
     48 C          67.6034   92.7469   16.1270 C.ar    1  UNL1       -0.0000
     49 C          66.1207   92.5395   16.0353 C.ar    1  UNL1       -0.0003
     50 C          65.5053   92.0857   14.7449 C.ar    1  UNL1       -0.0042
@<TRIPOS>BOND
     1    14    15    1
     2    15    16   ar
     3    16    17   ar
     4    17    13    1
     5    13     7    1
     6     7     8    1
     7     7     9   am
     8     9    10    2
     9     9    11   am
    10     6    11    1
    11     6     2    1
    12     2     3    2
    13     2     4   am
    14     4     1    1
    15     1    30    1
    16    30    31    1
    17    32    31    1
    18    32    44    1
    19    44    45    1
    20    45    46   ar
    21    46    47   ar
    22    47    48   ar
    23    48    49   ar
    24    49    50   ar
    25    32    33    1
    26    33    34   am
    27    34    35    2
    28    34    37    1
    29    37    38    1
    30    38    39    1
    31    39    40   ar
    32    40    41   ar
    33    41    42   ar
    34    42    43   ar
    35     1    23    1
    36    23    24    1
    37    24    25   ar
    38    25    26   ar
    39    26    27   ar
    40    27    28   ar
    41    28    29   ar
    42     6    20    1
    43    20    21    1
    44    20    22    1
    45    17    18   ar
    46    18    19   ar
    47    19    15   ar
    48    50    45   ar
    49    43    39   ar
    50    29    24   ar
    51    11    12    1
    52     4     5    1
    53    33    36    1
@<TRIPOS>MOLECULE
*****
 50 53 0 0 0
SMALL
GASTEIGER

@<TRIPOS>ATOM
      1 C          62.9103   86.0800   12.1303 C.3     1  UNL1        0.0760
      2 C          61.5164   88.2479   11.8024 C.2     1  UNL1        0.2403
      3 O          60.2516   87.4437   11.8622 O.2     1  UNL1       -0.2733
      4 N          62.8457   87.5660   11.9364 N.am    1  UNL1       -0.3043
      5 H          63.6759   88.0939   11.8972 H       1  UNL1        0.1494
      6 C          61.4518   89.7339   11.6085 C.3     1  UNL1        0.1496
      7 N          64.6623   92.0543   11.8504 N.am    1  UNL1       -0.2567
      8 C          65.7237   92.6187   10.9531 C.3     1  UNL1        0.1168
      9 C          63.5878   91.1763   11.2808 C.2     1  UNL1        0.3046
     10 O          63.5745   90.8626    9.8140 O.2     1  UNL1       -0.2526
     11 N          62.5264   90.6119   12.1781 N.am    1  UNL1       -0.2824
     12 H          62.5351   90.8178   13.1408 H       1  UNL1        0.1514
     13 C          64.6756   92.3679   13.3171 C.3     1  UNL1        0.1413
     14 C          68.8824   94.1767   15.9462 C.3     1  UNL1        0.0594
     15 C          67.9110   93.2561   15.2687 C.ar    1  UNL1        0.0883
     16 N          66.6300   93.6619   14.6021 N.ar    1  UNL1       -0.2453
     17 C          65.9774   92.4248   14.0602 C.ar    1  UNL1        0.0858
     18 C          66.8550   91.2544   14.3920 C.ar    1  UNL1        0.0530
     19 S          68.0501   91.7682   15.1389 S.2     1  UNL1       -0.0705
     20 C          60.3128   90.3419   10.8450 C.3     1  UNL1        0.0270
     21 C          59.2854   91.1671   11.5616 C.3     1  UNL1        0.0022
     22 C          60.2012   90.1247    9.3651 C.3     1  UNL1        0.0022
     23 C          61.9833   85.1829   11.3648 C.3     1  UNL1        0.0459
     24 C          61.9547   85.2372    9.8661 C.ar    1  UNL1       -0.0205
     25 C          60.7866   85.8596    9.1603 C.ar    1  UNL1       -0.0042
     26 C          60.7581   85.9139    7.6616 C.ar    1  UNL1       -0.0003
     27 C          61.8975   85.3458    6.8686 C.ar    1  UNL1       -0.0000
     28 C          63.0657   84.7234    7.5744 C.ar    1  UNL1       -0.0003
     29 C          63.0943   84.6691    9.0731 C.ar    1  UNL1       -0.0042
     30 C          63.9017   85.4912   13.0896 C.3     1  UNL1        0.0216
     31 C          63.9429   84.0080   13.3092 C.3     1  UNL1        0.0217
     32 C          63.1812   83.3968   14.4478 C.3     1  UNL1        0.0792
     33 N          63.2137   84.0398   15.8026 N.am    1  UNL1       -0.2720
     34 C          62.0992   84.9492   16.2281 C.2     1  UNL1        0.4019
     35 O          60.9523   85.2155   15.2989 O.2     1  UNL1       -0.2264
     36 H          63.9665   83.8650   16.4126 H       1  UNL1        0.1527
     37 O          62.1316   85.5921   17.5830 O.3     1  UNL1       -0.4291
     38 C          63.0428   86.7557   17.8393 C.3     1  UNL1        0.2447
     39 C          63.2928   87.7650   16.7581 C.ar    1  UNL1        0.0714
     40 C          63.9773   87.5038   15.4493 C.ar    1  UNL1        0.1053
     41 N          64.0097   88.7900   14.6782 N.ar    1  UNL1       -0.2350
     42 C          63.3452   89.8462   15.5106 C.ar    1  UNL1        0.1343
     43 S          62.9021   89.2127   16.7960 S.2     1  UNL1       -0.0652
     44 C          62.3871   82.1428   14.2316 C.3     1  UNL1        0.0460
     45 C          62.5747   81.3433   12.9763 C.ar    1  UNL1       -0.0205
     46 C          62.9259   82.0346   11.6923 C.ar    1  UNL1       -0.0042
     47 C          63.1134   81.2351   10.4371 C.ar    1  UNL1       -0.0003
     48 C          62.9498   79.7443   10.4659 C.ar    1  UNL1       -0.0000
     49 C          62.5987   79.0530   11.7499 C.ar    1  UNL1       -0.0003
     50 C          62.4112   79.8525   13.0051 C.ar    1  UNL1       -0.0042
@<TRIPOS>BOND
     1    14    15    1
     2    15    16   ar
     3    16    17   ar
     4    17    13    1
     5    13     7    1
     6     7     8    1
     7     7     9   am
     8     9    10    2
     9     9    11   am
    10     6    11    1
    11     6     2    1
    12     2     3    2
    13     2     4   am
    14     4     1    1
    15     1    30    1
    16    30    31    1
    17    32    31    1
    18    32    44    1
    19    44    45    1
    20    45    46   ar
    21    46    47   ar
    22    47    48   ar
    23    48    49   ar
    24    49    50   ar
    25    32    33    1
    26    33    34   am
    27    34    35    2
    28    34    37    1
    29    37    38    1
    30    38    39    1
    31    39    40   ar
    32    40    41   ar
    33    41    42   ar
    34    42    43   ar
    35     1    23    1
    36    23    24    1
    37    24    25   ar
    38    25    26   ar
    39    26    27   ar
    40    27    28   ar
    41    28    29   ar
    42     6    20    1
    43    20    21    1
    44    20    22    1
    45    17    18   ar
    46    18    19   ar
    47    19    15   ar
    48    50    45   ar
    49    43    39   ar
    50    29    24   ar
    51    11    12    1
    52     4     5    1
    53    33    36    1
@<TRIPOS>MOLECULE
*****
 50 53 0 0 0
SMALL
GASTEIGER

@<TRIPOS>ATOM
      1 C          63.7071   91.1398   10.8635 C.3     1  UNL1        0.0760
      2 C          63.6098   90.1554   13.2659 C.2     1  UNL1        0.2403
      3 O          62.1673   89.7987   13.0614 O.2     1  UNL1       -0.2733
      4 N          64.3798   90.8259   12.1670 N.am    1  UNL1       -0.3043
      5 H          65.3265   91.0600   12.3012 H       1  UNL1        0.1494
      6 C          64.2825   89.8416   14.5694 C.3     1  UNL1        0.1496
      7 N          63.2200   86.6107   16.6146 N.am    1  UNL1       -0.2567
      8 C          62.1730   86.1870   17.6016 C.3     1  UNL1        0.1168
      9 C          63.2278   88.0142   16.0855 C.2     1  UNL1        0.3046
     10 O          62.1884   88.9941   16.5434 O.2     1  UNL1       -0.2526
     11 N          64.2748   88.4379   15.0985 N.am    1  UNL1       -0.2824
     12 H          64.9570   87.7948   14.7980 H       1  UNL1        0.1514
     13 C          64.2594   85.6309   16.1567 C.3     1  UNL1        0.1413
     14 C          61.6212   81.5126   14.1664 C.3     1  UNL1        0.0594
     15 C          62.6546   82.5801   14.3725 C.ar    1  UNL1        0.0883
     16 N          62.6510   83.6125   15.4607 N.ar    1  UNL1       -0.2453
     17 C          63.8673   84.4730   15.2873 C.ar    1  UNL1        0.0858
     18 C          64.6227   83.9725   14.0920 C.ar    1  UNL1        0.0530
     19 S          63.8733   82.8026   13.5266 S.2     1  UNL1       -0.0705
     20 C          64.9628   90.9313   15.3438 C.3     1  UNL1        0.0270
     21 C          64.2422   91.6146   16.4680 C.3     1  UNL1        0.0022
     22 C          66.3636   91.3376   14.9940 C.3     1  UNL1        0.0022
     23 C          63.8480   92.5041   10.2562 C.3     1  UNL1        0.0459
     24 C          65.2039   93.1335   10.1322 C.ar    1  UNL1       -0.0205
     25 C          66.4218   92.2693    9.9912 C.ar    1  UNL1       -0.0042
     26 C          67.7777   92.8987    9.8671 C.ar    1  UNL1       -0.0003
     27 C          67.9158   94.3922    9.8841 C.ar    1  UNL1       -0.0000
     28 C          66.6978   95.2564   10.0251 C.ar    1  UNL1       -0.0003
     29 C          65.3419   94.6271   10.1491 C.ar    1  UNL1       -0.0042
     30 C          62.8936   90.0893   10.1673 C.3     1  UNL1        0.0216
     31 C          61.3965   90.1202   10.2543 C.3     1  UNL1        0.0217
     32 C          60.5738   89.2742    9.3282 C.3     1  UNL1        0.0792
     33 N          60.1681   89.8079    7.9863 N.am    1  UNL1       -0.2720
     34 C          59.2033   89.0383    7.1336 C.2     1  UNL1        0.4019
     35 O          58.6444   87.7351    7.6227 O.2     1  UNL1       -0.2264
     36 H          60.5349   90.6632    7.6653 H       1  UNL1        0.1527
     37 O          58.7976   89.5720    5.7917 O.3     1  UNL1       -0.4291
     38 C          58.8231   91.0492    5.5331 C.3     1  UNL1        0.2447
     39 C          59.7996   91.6217    4.5489 C.ar    1  UNL1        0.0714
     40 C          61.2453   91.2432    4.4194 C.ar    1  UNL1        0.1053
     41 N          61.8411   92.0607    3.3118 N.ar    1  UNL1       -0.2350
     42 C          60.7636   92.9444    2.7567 C.ar    1  UNL1        0.1343
     43 S          59.5019   92.6730    3.5213 S.2     1  UNL1       -0.0652
     44 C          60.1568   87.8947    9.7440 C.3     1  UNL1        0.0460
     45 C          61.1714   86.7915    9.8068 C.ar    1  UNL1       -0.0205
     46 C          61.4396   86.0924   11.1065 C.ar    1  UNL1       -0.0042
     47 C          62.4541   84.9893   11.1693 C.ar    1  UNL1       -0.0003
     48 C          63.2003   84.5853    9.9324 C.ar    1  UNL1       -0.0000
     49 C          62.9320   85.2844    8.6327 C.ar    1  UNL1       -0.0003
     50 C          61.9176   86.3875    8.5699 C.ar    1  UNL1       -0.0042
@<TRIPOS>BOND
     1    14    15    1
     2    15    16   ar
     3    16    17   ar
     4    17    13    1
     5    13     7    1
     6     7     8    1
     7     7     9   am
     8     9    10    2
     9     9    11   am
    10     6    11    1
    11     6     2    1
    12     2     3    2
    13     2     4   am
    14     4     1    1
    15     1    30    1
    16    30    31    1
    17    32    31    1
    18    32    44    1
    19    44    45    1
    20    45    46   ar
    21    46    47   ar
    22    47    48   ar
    23    48    49   ar
    24    49    50   ar
    25    32    33    1
    26    33    34   am
    27    34    35    2
    28    34    37    1
    29    37    38    1
    30    38    39    1
    31    39    40   ar
    32    40    41   ar
    33    41    42   ar
    34    42    43   ar
    35     1    23    1
    36    23    24    1
    37    24    25   ar
    38    25    26   ar
    39    26    27   ar
    40    27    28   ar
    41    28    29   ar
    42     6    20    1
    43    20    21    1
    44    20    22    1
    45    17    18   ar
    46    18    19   ar
    47    19    15   ar
    48    50    45   ar
    49    43    39   ar
    50    29    24   ar
    51    11    12    1
    52     4     5    1
    53    33    36    1
@<TRIPOS>MOLECULE
*****
 50 53 0 0 0
SMALL
GASTEIGER

@<TRIPOS>ATOM
      1 C          63.4666   91.0645   11.1469 C.3     1  UNL1        0.0760
      2 C          61.5565   89.4153   10.5292 C.2     1  UNL1        0.2403
      3 O          60.5398   90.4384   10.9408 O.2     1  UNL1       -0.2733
      4 N          63.0199   89.7283   10.6322 N.am    1  UNL1       -0.3043
      5 H          63.6871   89.0567   10.3620 H       1  UNL1        0.1494
      6 C          61.1098   88.0790   10.0144 C.3     1  UNL1        0.1496
      7 N          62.9997   84.6169   10.4528 N.am    1  UNL1       -0.2567
      8 C          63.8366   83.6715    9.6431 C.3     1  UNL1        0.1168
      9 C          62.4732   85.8752    9.8288 C.2     1  UNL1        0.3046
     10 O          62.7836   86.1881    8.3949 O.2     1  UNL1       -0.2526
     11 N          61.6363   86.8207   10.6385 N.am    1  UNL1       -0.2824
     12 H          61.4326   86.6154   11.5796 H       1  UNL1        0.1514
     13 C          62.6893   84.3041   11.8866 C.3     1  UNL1        0.1413
     14 C          60.8374   79.9684   14.2641 C.3     1  UNL1        0.0594
     15 C          61.6670   80.8864   13.4162 C.ar    1  UNL1        0.0883
     16 N          61.4664   82.3648   13.2609 N.ar    1  UNL1       -0.2453
     17 C          62.5182   82.8793   12.3234 C.ar    1  UNL1        0.0858
     18 C          63.3689   81.7189   11.8993 C.ar    1  UNL1        0.0530
     19 S          62.8428   80.4872   12.5746 S.2     1  UNL1       -0.0705
     20 C          60.1366   88.0011    8.8756 C.3     1  UNL1        0.0270
     21 C          59.3369   86.7511    8.6568 C.3     1  UNL1        0.0022
     22 C          59.9633   89.1731    7.9558 C.3     1  UNL1        0.0022
     23 C          63.8160   92.1605   10.1842 C.3     1  UNL1        0.0459
     24 C          65.1771   92.7897   10.2260 C.ar    1  UNL1       -0.0205
     25 C          66.4028   91.9347   10.0977 C.ar    1  UNL1       -0.0042
     26 C          67.7638   92.5640   10.1395 C.ar    1  UNL1       -0.0003
     27 C          67.8991   94.0481   10.3095 C.ar    1  UNL1       -0.0000
     28 C          66.6733   94.9031   10.4378 C.ar    1  UNL1       -0.0003
     29 C          65.3122   94.2739   10.3960 C.ar    1  UNL1       -0.0042
     30 C          63.5638   91.3048   12.6243 C.3     1  UNL1        0.0216
     31 C          63.5006   90.1488   13.5779 C.3     1  UNL1        0.0217
     32 C          64.0597   90.2876   14.9630 C.3     1  UNL1        0.0792
     33 N          64.0983   89.1001   15.8786 N.am    1  UNL1       -0.2720
     34 C          62.8389   88.6189   16.5363 C.2     1  UNL1        0.4019
     35 O          61.5410   89.3251   16.2782 O.2     1  UNL1       -0.2264
     36 H          64.9502   88.6366   16.0480 H       1  UNL1        0.1527
     37 O          62.8775   87.4314   17.4519 O.3     1  UNL1       -0.4291
     38 C          62.3465   86.1080   16.9867 C.3     1  UNL1        0.2447
     39 C          63.2136   85.1977   16.1684 C.ar    1  UNL1        0.0714
     40 C          63.1012   83.7037   16.0950 C.ar    1  UNL1        0.1053
     41 N          64.1635   83.2042   15.1611 N.ar    1  UNL1       -0.2350
     42 C          64.9325   84.3895   14.6574 C.ar    1  UNL1        0.1343
     43 S          64.3454   85.6215   15.2799 S.2     1  UNL1       -0.0652
     44 C          64.5801   91.6138   15.4323 C.3     1  UNL1        0.0460
     45 C          66.0256   91.9639   15.2370 C.ar    1  UNL1       -0.0205
     46 C          66.7693   92.7046   16.3086 C.ar    1  UNL1       -0.0042
     47 C          68.2146   93.0547   16.1133 C.ar    1  UNL1       -0.0003
     48 C          68.9164   92.6642   14.8463 C.ar    1  UNL1       -0.0000
     49 C          68.1727   91.9236   13.7747 C.ar    1  UNL1       -0.0003
     50 C          66.7273   91.5735   13.9701 C.ar    1  UNL1       -0.0042
@<TRIPOS>BOND
     1    14    15    1
     2    15    16   ar
     3    16    17   ar
     4    17    13    1
     5    13     7    1
     6     7     8    1
     7     7     9   am
     8     9    10    2
     9     9    11   am
    10     6    11    1
    11     6     2    1
    12     2     3    2
    13     2     4   am
    14     4     1    1
    15     1    30    1
    16    30    31    1
    17    32    31    1
    18    32    44    1
    19    44    45    1
    20    45    46   ar
    21    46    47   ar
    22    47    48   ar
    23    48    49   ar
    24    49    50   ar
    25    32    33    1
    26    33    34   am
    27    34    35    2
    28    34    37    1
    29    37    38    1
    30    38    39    1
    31    39    40   ar
    32    40    41   ar
    33    41    42   ar
    34    42    43   ar
    35     1    23    1
    36    23    24    1
    37    24    25   ar
    38    25    26   ar
    39    26    27   ar
    40    27    28   ar
    41    28    29   ar
    42     6    20    1
    43    20    21    1
    44    20    22    1
    45    17    18   ar
    46    18    19   ar
    47    19    15   ar
    48    50    45   ar
    49    43    39   ar
    50    29    24   ar
    51    11    12    1
    52     4     5    1
    53    33    36    1
@<TRIPOS>MOLECULE
*****
 50 53 0 0 0
SMALL
GASTEIGER

@<TRIPOS>ATOM
      1 C          62.6402   90.5189   11.1007 C.3     1  UNL1        0.0760
      2 C          61.1334   88.4816   10.5266 C.2     1  UNL1        0.2403
      3 O          60.0482   89.0381   11.3998 O.2     1  UNL1       -0.2733
      4 N          62.4295   89.2220   10.3770 N.am    1  UNL1       -0.3043
      5 H          63.1417   88.8567    9.8039 H       1  UNL1        0.1494
      6 C          60.9227   87.1848    9.8029 C.3     1  UNL1        0.1496
      7 N          63.1066   83.9370   10.4607 N.am    1  UNL1       -0.2567
      8 C          64.3236   83.2575    9.9066 C.3     1  UNL1        0.1168
      9 C          62.6232   85.2211    9.8548 C.2     1  UNL1        0.3046
     10 O          63.3569   85.8259    8.6946 O.2     1  UNL1       -0.2526
     11 N          61.4061   85.9006   10.4089 N.am    1  UNL1       -0.2824
     12 H          60.9245   85.5037   11.1703 H       1  UNL1        0.1514
     13 C          62.3729   83.3323   11.6209 C.3     1  UNL1        0.1413
     14 C          62.5060   85.2053   16.5560 C.3     1  UNL1        0.0594
     15 C          62.8764   84.4874   15.2921 C.ar    1  UNL1        0.0883
     16 N          62.0728   84.4599   14.0258 N.ar    1  UNL1       -0.2453
     17 C          62.8152   83.6264   13.0237 C.ar    1  UNL1        0.0858
     18 C          64.0776   83.1387   13.6707 C.ar    1  UNL1        0.0530
     19 S          64.1154   83.6708   15.0726 S.2     1  UNL1       -0.0705
     20 C          60.2287   87.1721    8.4732 C.3     1  UNL1        0.0270
     21 C          59.6343   88.4356    7.9253 C.3     1  UNL1        0.0022
     22 C          60.1291   85.8959    7.6914 C.3     1  UNL1        0.0022
     23 C          62.2927   90.6309   12.5557 C.3     1  UNL1        0.0459
     24 C          62.9477   89.7242   13.5551 C.ar    1  UNL1       -0.0205
     25 C          62.8966   90.0575   15.0167 C.ar    1  UNL1       -0.0042
     26 C          63.5516   89.1509   16.0161 C.ar    1  UNL1       -0.0003
     27 C          64.2577   87.9108   15.5540 C.ar    1  UNL1       -0.0000
     28 C          64.3088   87.5774   14.0924 C.ar    1  UNL1       -0.0003
     29 C          63.6538   88.4840   13.0930 C.ar    1  UNL1       -0.0042
     30 C          63.1983   91.7037   10.3696 C.3     1  UNL1        0.0216
     31 C          64.6700   91.7888   10.0924 C.3     1  UNL1        0.0217
     32 C          65.6120   92.2341   11.1714 C.3     1  UNL1        0.0792
     33 N          65.3251   91.8954   12.6043 N.am    1  UNL1       -0.2720
     34 C          65.4926   92.9381   13.6695 C.2     1  UNL1        0.4019
     35 O          65.9471   94.3195   13.3019 O.2     1  UNL1       -0.2264
     36 H          65.0268   90.9887   12.8455 H       1  UNL1        0.1527
     37 O          65.2057   92.5993   15.1023 O.3     1  UNL1       -0.4291
     38 C          66.3371   92.3935   16.0654 C.3     1  UNL1        0.2447
     39 C          67.7406   92.7303   15.6567 C.ar    1  UNL1        0.0714
     40 C          68.5568   92.0067   14.6271 C.ar    1  UNL1        0.1053
     41 N          69.8949   92.6790   14.5400 N.ar    1  UNL1       -0.2350
     42 C          69.9057   93.8181   15.5158 C.ar    1  UNL1        0.1343
     43 S          68.5742   93.8498   16.2060 S.2     1  UNL1       -0.0652
     44 C          66.8408   93.0182   10.8177 C.3     1  UNL1        0.0460
     45 C          66.7175   94.2965   10.0425 C.ar    1  UNL1       -0.0205
     46 C          67.6750   94.5921    8.9264 C.ar    1  UNL1       -0.0042
     47 C          67.5516   95.8704    8.1512 C.ar    1  UNL1       -0.0003
     48 C          66.4708   96.8530    8.4922 C.ar    1  UNL1       -0.0000
     49 C          65.5133   96.5574    9.6083 C.ar    1  UNL1       -0.0003
     50 C          65.6366   95.2792   10.3835 C.ar    1  UNL1       -0.0042
@<TRIPOS>BOND
     1    14    15    1
     2    15    16   ar
     3    16    17   ar
     4    17    13    1
     5    13     7    1
     6     7     8    1
     7     7     9   am
     8     9    10    2
     9     9    11   am
    10     6    11    1
    11     6     2    1
    12     2     3    2
    13     2     4   am
    14     4     1    1
    15     1    30    1
    16    30    31    1
    17    32    31    1
    18    32    44    1
    19    44    45    1
    20    45    46   ar
    21    46    47   ar
    22    47    48   ar
    23    48    49   ar
    24    49    50   ar
    25    32    33    1
    26    33    34   am
    27    34    35    2
    28    34    37    1
    29    37    38    1
    30    38    39    1
    31    39    40   ar
    32    40    41   ar
    33    41    42   ar
    34    42    43   ar
    35     1    23    1
    36    23    24    1
    37    24    25   ar
    38    25    26   ar
    39    26    27   ar
    40    27    28   ar
    41    28    29   ar
    42     6    20    1
    43    20    21    1
    44    20    22    1
    45    17    18   ar
    46    18    19   ar
    47    19    15   ar
    48    50    45   ar
    49    43    39   ar
    50    29    24   ar
    51    11    12    1
    52     4     5    1
    53    33    36    1
@<TRIPOS>MOLECULE
*****
 50 53 0 0 0
SMALL
GASTEIGER

@<TRIPOS>ATOM
      1 C          63.9893   90.6775   12.0081 C.3     1  UNL1        0.0760
      2 C          61.9289   89.4895   10.9623 C.2     1  UNL1        0.2403
      3 O          61.1898   90.7945   10.9359 O.2     1  UNL1       -0.2733
      4 N          63.3287   89.4310   11.4983 N.am    1  UNL1       -0.3043
      5 H          63.8137   88.5745   11.5156 H       1  UNL1        0.1494
      6 C          61.2683   88.2430   10.4525 C.3     1  UNL1        0.1496
      7 N          62.8191   84.6068   10.8031 N.am    1  UNL1       -0.2567
      8 C          63.6335   83.6389    9.9970 C.3     1  UNL1        0.1168
      9 C          62.4509   85.9409   10.2248 C.2     1  UNL1        0.3046
     10 O          62.8971   86.3072    8.8403 O.2     1  UNL1       -0.2526
     11 N          61.6365   86.9088   11.0309 N.am    1  UNL1       -0.2824
     12 H          61.3436   86.6685   11.9396 H       1  UNL1        0.1514
     13 C          62.3729   84.2406   12.1876 C.3     1  UNL1        0.1413
     14 C          62.2610   79.0817   13.3078 C.3     1  UNL1        0.0594
     15 C          62.6676   80.5251   13.2711 C.ar    1  UNL1        0.0883
     16 N          61.9774   81.6164   12.5078 N.ar    1  UNL1       -0.2453
     17 C          62.7191   82.8963   12.7562 C.ar    1  UNL1        0.0858
     18 C          63.8676   82.5961   13.6731 C.ar    1  UNL1        0.0530
     19 S          63.8359   81.1306   13.9913 S.2     1  UNL1       -0.0705
     20 C          60.2395   88.3306    9.3645 C.3     1  UNL1        0.0270
     21 C          60.1643   89.5543    8.5002 C.3     1  UNL1        0.0022
     22 C          59.2860   87.1946    9.1407 C.3     1  UNL1        0.0022
     23 C          63.9726   90.9888   13.4754 C.3     1  UNL1        0.0459
     24 C          63.8185   89.8814   14.4753 C.ar    1  UNL1       -0.0205
     25 C          63.1827   90.1555   15.8059 C.ar    1  UNL1       -0.0042
     26 C          63.0286   89.0481   16.8059 C.ar    1  UNL1       -0.0003
     27 C          63.5104   87.6666   16.4752 C.ar    1  UNL1       -0.0000
     28 C          64.1463   87.3925   15.1446 C.ar    1  UNL1       -0.0003
     29 C          64.3004   88.4999   14.1446 C.ar    1  UNL1       -0.0042
     30 C          64.6665   91.6126   11.0506 C.3     1  UNL1        0.0216
     31 C          64.6777   93.0874   11.3240 C.3     1  UNL1        0.0217
     32 C          65.9426   93.7575   11.7724 C.3     1  UNL1        0.0792
     33 N          67.0081   92.9612   12.4658 N.am    1  UNL1       -0.2720
     34 C          68.0700   92.2702   11.6627 C.2     1  UNL1        0.4019
     35 O          68.0665   92.3754   10.1665 O.2     1  UNL1       -0.2264
     36 H          67.0104   92.8921   13.4478 H       1  UNL1        0.1527
     37 O          69.1355   91.4739   12.3561 O.3     1  UNL1       -0.4291
     38 C          69.5932   91.8688   13.7288 C.3     1  UNL1        0.2447
     39 C          68.5982   92.3561   14.7400 C.ar    1  UNL1        0.0714
     40 C          68.6796   93.6416   15.5086 C.ar    1  UNL1        0.1053
     41 N          67.4787   93.7235   16.4037 N.ar    1  UNL1       -0.2350
     42 C          66.6550   92.4885   16.1882 C.ar    1  UNL1        0.1343
     43 S          67.3469   91.6434   15.1600 S.2     1  UNL1       -0.0652
     44 C          66.1420   95.2239   11.5275 C.3     1  UNL1        0.0460
     45 C          66.1437   95.7567   10.1252 C.ar    1  UNL1       -0.0205
     46 C          64.8855   96.3226    9.5365 C.ar    1  UNL1       -0.0042
     47 C          64.8872   96.8553    8.1343 C.ar    1  UNL1       -0.0003
     48 C          66.1471   96.8221    7.3209 C.ar    1  UNL1       -0.0000
     49 C          67.4053   96.2562    7.9097 C.ar    1  UNL1       -0.0003
     50 C          67.4036   95.7235    9.3118 C.ar    1  UNL1       -0.0042
@<TRIPOS>BOND
     1    14    15    1
     2    15    16   ar
     3    16    17   ar
     4    17    13    1
     5    13     7    1
     6     7     8    1
     7     7     9   am
     8     9    10    2
     9     9    11   am
    10     6    11    1
    11     6     2    1
    12     2     3    2
    13     2     4   am
    14     4     1    1
    15     1    30    1
    16    30    31    1
    17    32    31    1
    18    32    44    1
    19    44    45    1
    20    45    46   ar
    21    46    47   ar
    22    47    48   ar
    23    48    49   ar
    24    49    50   ar
    25    32    33    1
    26    33    34   am
    27    34    35    2
    28    34    37    1
    29    37    38    1
    30    38    39    1
    31    39    40   ar
    32    40    41   ar
    33    41    42   ar
    34    42    43   ar
    35     1    23    1
    36    23    24    1
    37    24    25   ar
    38    25    26   ar
    39    26    27   ar
    40    27    28   ar
    41    28    29   ar
    42     6    20    1
    43    20    21    1
    44    20    22    1
    45    17    18   ar
    46    18    19   ar
    47    19    15   ar
    48    50    45   ar
    49    43    39   ar
    50    29    24   ar
    51    11    12    1
    52     4     5    1
    53    33    36    1
@<TRIPOS>MOLECULE
*****
 50 53 0 0 0
SMALL
GASTEIGER

@<TRIPOS>ATOM
      1 C          62.2810   86.9079   11.5111 C.3     1  UNL1        0.0760
      2 C          62.9343   89.3632   12.0543 C.2     1  UNL1        0.2403
      3 O          62.0159   89.3452   13.2400 O.2     1  UNL1       -0.2733
      4 N          63.0669   88.1445   11.1898 N.am    1  UNL1       -0.3043
      5 H          63.6697   88.1562   10.4115 H       1  UNL1        0.1494
      6 C          63.7202   90.5997   11.7329 C.3     1  UNL1        0.1496
      7 N          65.8779   91.8239   14.8306 N.am    1  UNL1       -0.2567
      8 C          65.6732   92.2915   16.2411 C.3     1  UNL1        0.1168
      9 C          64.6968   91.4456   13.9870 C.2     1  UNL1        0.3046
     10 O          63.3108   91.5350   14.5538 O.2     1  UNL1       -0.2526
     11 N          64.9015   90.9780   12.5765 N.am    1  UNL1       -0.2824
     12 H          65.8111   90.9194   12.2045 H       1  UNL1        0.1514
     13 C          67.2638   91.7346   14.2637 C.3     1  UNL1        0.1413
     14 C          67.1817   94.5388    9.7904 C.3     1  UNL1        0.0594
     15 C          67.4923   93.4761   10.8024 C.ar    1  UNL1        0.0883
     16 N          66.9626   93.4119   12.2043 N.ar    1  UNL1       -0.2453
     17 C          67.5300   92.1872   12.8586 C.ar    1  UNL1        0.0858
     18 C          68.4105   91.4945   11.8611 C.ar    1  UNL1        0.0530
     19 S          68.3872   92.2911   10.5903 S.2     1  UNL1       -0.0705
     20 C          63.3249   91.4580   10.5680 C.3     1  UNL1        0.0270
     21 C          62.0695   91.1550    9.8050 C.3     1  UNL1        0.0022
     22 C          64.1850   92.6193   10.1660 C.3     1  UNL1        0.0022
     23 C          61.0941   86.5347   10.6732 C.3     1  UNL1        0.0459
     24 C          61.2942   85.9850    9.2920 C.ar    1  UNL1       -0.0205
     25 C          62.6127   85.3812    8.9088 C.ar    1  UNL1       -0.0042
     26 C          62.8128   84.8315    7.5276 C.ar    1  UNL1       -0.0003
     27 C          61.6944   84.8856    6.5295 C.ar    1  UNL1       -0.0000
     28 C          60.3758   85.4895    6.9127 C.ar    1  UNL1       -0.0003
     29 C          60.1757   86.0392    8.2939 C.ar    1  UNL1       -0.0042
     30 C          62.6820   86.0445   12.6703 C.3     1  UNL1        0.0216
     31 C          63.6664   84.9306   12.4706 C.3     1  UNL1        0.0217
     32 C          64.3274   84.2922   13.6562 C.3     1  UNL1        0.0792
     33 N          64.2431   82.8075   13.8527 N.am    1  UNL1       -0.2720
     34 C          62.9811   82.1913   14.3797 C.2     1  UNL1        0.4019
     35 O          61.8035   83.0596   14.7101 O.2     1  UNL1       -0.2264
     36 H          65.0160   82.2376   13.6359 H       1  UNL1        0.1527
     37 O          62.8968   80.7066   14.5762 O.3     1  UNL1       -0.4291
     38 C          62.2401   79.8484   13.5359 C.3     1  UNL1        0.2447
     39 C          62.6058   80.0102   12.0902 C.ar    1  UNL1        0.0714
     40 C          62.6380   78.9190   11.0614 C.ar    1  UNL1        0.1053
     41 N          63.0557   79.5259    9.7548 N.ar    1  UNL1       -0.2350
     42 C          63.2817   80.9922    9.9760 C.ar    1  UNL1        0.1343
     43 S          63.0036   81.2915   11.4194 S.2     1  UNL1       -0.0652
     44 C          65.0728   85.1385   14.6452 C.3     1  UNL1        0.0460
     45 C          64.3288   86.1130   15.5096 C.ar    1  UNL1       -0.0205
     46 C          63.5327   85.6201   16.6814 C.ar    1  UNL1       -0.0042
     47 C          62.7888   86.5945   17.5457 C.ar    1  UNL1       -0.0003
     48 C          62.8410   88.0618   17.2382 C.ar    1  UNL1       -0.0000
     49 C          63.6371   88.5546   16.0664 C.ar    1  UNL1       -0.0003
     50 C          64.3810   87.5802   15.2021 C.ar    1  UNL1       -0.0042
@<TRIPOS>BOND
     1    14    15    1
     2    15    16   ar
     3    16    17   ar
     4    17    13    1
     5    13     7    1
     6     7     8    1
     7     7     9   am
     8     9    10    2
     9     9    11   am
    10     6    11    1
    11     6     2    1
    12     2     3    2
    13     2     4   am
    14     4     1    1
    15     1    30    1
    16    30    31    1
    17    32    31    1
    18    32    44    1
    19    44    45    1
    20    45    46   ar
    21    46    47   ar
    22    47    48   ar
    23    48    49   ar
    24    49    50   ar
    25    32    33    1
    26    33    34   am
    27    34    35    2
    28    34    37    1
    29    37    38    1
    30    38    39    1
    31    39    40   ar
    32    40    41   ar
    33    41    42   ar
    34    42    43   ar
    35     1    23    1
    36    23    24    1
    37    24    25   ar
    38    25    26   ar
    39    26    27   ar
    40    27    28   ar
    41    28    29   ar
    42     6    20    1
    43    20    21    1
    44    20    22    1
    45    17    18   ar
    46    18    19   ar
    47    19    15   ar
    48    50    45   ar
    49    43    39   ar
    50    29    24   ar
    51    11    12    1
    52     4     5    1
    53    33    36    1
@<TRIPOS>MOLECULE
*****
 50 53 0 0 0
SMALL
GASTEIGER

@<TRIPOS>ATOM
      1 C          62.8105   86.3580   12.3815 C.3     1  UNL1        0.0760
      2 C          63.4979   88.7855   13.0019 C.2     1  UNL1        0.2403
      3 O          63.5340   88.4046   14.4523 O.2     1  UNL1       -0.2733
      4 N          63.1361   87.7622   11.9665 N.am    1  UNL1       -0.3043
      5 H          63.1124   88.0122   11.0146 H       1  UNL1        0.1494
      6 C          63.8235   90.1897   12.5869 C.3     1  UNL1        0.1496
      7 N          65.8543   92.2017   15.3396 N.am    1  UNL1       -0.2567
      8 C          65.6639   92.7247   16.7326 C.3     1  UNL1        0.1168
      9 C          64.7438   91.4572   14.6597 C.2     1  UNL1        0.3046
     10 O          63.4428   91.2356   15.3728 O.2     1  UNL1       -0.2526
     11 N          64.9341   90.9342   13.2668 N.am    1  UNL1       -0.2824
     12 H          65.7880   91.0797   12.7988 H       1  UNL1        0.1514
     13 C          67.1552   92.4233   14.6266 C.3     1  UNL1        0.1413
     14 C          68.1734   92.2271    9.4491 C.3     1  UNL1        0.0594
     15 C          67.6303   92.6524   10.7811 C.ar    1  UNL1        0.0883
     16 N          67.9061   91.9894   12.0981 N.ar    1  UNL1       -0.2453
     17 C          67.1623   92.7425   13.1609 C.ar    1  UNL1        0.0858
     18 C          66.4268   93.8710   12.5008 C.ar    1  UNL1        0.0530
     19 S          66.7160   93.8153   11.0300 S.2     1  UNL1       -0.0705
     20 C          63.0386   90.8493   11.4920 C.3     1  UNL1        0.0270
     21 C          63.7360   91.7189   10.4884 C.3     1  UNL1        0.0022
     22 C          61.5562   90.6392   11.4008 C.3     1  UNL1        0.0022
     23 C          63.7351   85.6134   13.2985 C.3     1  UNL1        0.0459
     24 C          63.6442   84.1199   13.4043 C.ar    1  UNL1       -0.0205
     25 C          64.4423   83.2524   12.4767 C.ar    1  UNL1       -0.0042
     26 C          64.3514   81.7589   12.5824 C.ar    1  UNL1       -0.0003
     27 C          63.4625   81.1329   13.6158 C.ar    1  UNL1       -0.0000
     28 C          62.6644   82.0004   14.5435 C.ar    1  UNL1       -0.0003
     29 C          62.7552   83.4939   14.4377 C.ar    1  UNL1       -0.0042
     30 C          61.5603   85.6984   11.8796 C.3     1  UNL1        0.0216
     31 C          60.7246   86.3734   10.8328 C.3     1  UNL1        0.0217
     32 C          61.3206   86.7067    9.4972 C.3     1  UNL1        0.0792
     33 N          60.8482   87.9159    8.7457 N.am    1  UNL1       -0.2720
     34 C          59.4684   87.9418    8.1579 C.2     1  UNL1        0.4019
     35 O          58.5611   86.7586    8.3214 O.2     1  UNL1       -0.2264
     36 H          61.4437   88.6924    8.6384 H       1  UNL1        0.1527
     37 O          58.9959   89.1510    7.4065 O.3     1  UNL1       -0.4291
     38 C          59.7730   89.6506    6.2247 C.3     1  UNL1        0.2447
     39 C          59.2214   90.7600    5.3790 C.ar    1  UNL1        0.0714
     40 C          57.7771   91.1495    5.2681 C.ar    1  UNL1        0.1053
     41 N          57.6804   92.3048    4.3163 N.ar    1  UNL1       -0.2350
     42 C          59.0649   92.6293    3.8389 C.ar    1  UNL1        0.1343
     43 S          60.0173   91.6745    4.4957 S.2     1  UNL1       -0.0652
     44 C          62.3890   85.8307    8.9130 C.3     1  UNL1        0.0460
     45 C          62.1846   85.1917    7.5713 C.ar    1  UNL1       -0.0205
     46 C          63.3639   84.9035    6.6904 C.ar    1  UNL1       -0.0042
     47 C          63.1595   84.2646    5.3488 C.ar    1  UNL1       -0.0003
     48 C          61.7757   83.9139    4.8882 C.ar    1  UNL1       -0.0000
     49 C          60.5964   84.2021    5.7691 C.ar    1  UNL1       -0.0003
     50 C          60.8008   84.8411    7.1107 C.ar    1  UNL1       -0.0042
@<TRIPOS>BOND
     1    14    15    1
     2    15    16   ar
     3    16    17   ar
     4    17    13    1
     5    13     7    1
     6     7     8    1
     7     7     9   am
     8     9    10    2
     9     9    11   am
    10     6    11    1
    11     6     2    1
    12     2     3    2
    13     2     4   am
    14     4     1    1
    15     1    30    1
    16    30    31    1
    17    32    31    1
    18    32    44    1
    19    44    45    1
    20    45    46   ar
    21    46    47   ar
    22    47    48   ar
    23    48    49   ar
    24    49    50   ar
    25    32    33    1
    26    33    34   am
    27    34    35    2
    28    34    37    1
    29    37    38    1
    30    38    39    1
    31    39    40   ar
    32    40    41   ar
    33    41    42   ar
    34    42    43   ar
    35     1    23    1
    36    23    24    1
    37    24    25   ar
    38    25    26   ar
    39    26    27   ar
    40    27    28   ar
    41    28    29   ar
    42     6    20    1
    43    20    21    1
    44    20    22    1
    45    17    18   ar
    46    18    19   ar
    47    19    15   ar
    48    50    45   ar
    49    43    39   ar
    50    29    24   ar
    51    11    12    1
    52     4     5    1
    53    33    36    1
@<TRIPOS>MOLECULE
*****
 50 53 0 0 0
SMALL
GASTEIGER

@<TRIPOS>ATOM
      1 C          62.5004   88.9887   11.1916 C.3     1  UNL1        0.0760
      2 C          60.6586   88.3803    9.4630 C.2     1  UNL1        0.2403
      3 O          59.6591   88.2502   10.5738 O.2     1  UNL1       -0.2733
      4 N          62.0793   88.7496    9.7719 N.am    1  UNL1       -0.3043
      5 H          62.7354   88.8351    9.0428 H       1  UNL1        0.1494
      6 C          60.2376   88.1412    8.0433 C.3     1  UNL1        0.1496
      7 N          59.0753   90.9232    5.4626 N.am    1  UNL1       -0.2567
      8 C          57.8061   91.4660    4.8756 C.3     1  UNL1        0.1168
      9 C          59.0219   89.8036    6.4594 C.2     1  UNL1        0.3046
     10 O          57.6992   89.2268    6.8693 O.2     1  UNL1       -0.2526
     11 N          60.2910   89.2609    7.0465 N.am    1  UNL1       -0.2824
     12 H          61.1591   89.6394    6.7775 H       1  UNL1        0.1514
     13 C          60.3979   91.5000    5.0528 C.3     1  UNL1        0.1413
     14 C          59.3195   94.0818    0.5748 C.3     1  UNL1        0.0594
     15 C          60.0526   93.3385    1.6519 C.ar    1  UNL1        0.0883
     16 N          59.4602   92.8322    2.9336 N.ar    1  UNL1       -0.2453
     17 C          60.5483   92.1518    3.7102 C.ar    1  UNL1        0.0858
     18 C          61.8132   92.2376    2.9085 C.ar    1  UNL1        0.0530
     19 S          61.5069   92.9710    1.6364 S.2     1  UNL1       -0.0705
     20 C          59.7630   86.7826    7.6205 C.3     1  UNL1        0.0270
     21 C          58.3140   86.4189    7.7548 C.3     1  UNL1        0.0022
     22 C          60.7375   85.7877    7.0633 C.3     1  UNL1        0.0022
     23 C          62.5020   90.3814   11.7489 C.3     1  UNL1        0.0459
     24 C          63.7508   91.2104   11.6922 C.ar    1  UNL1       -0.0205
     25 C          64.5746   91.4112   12.9296 C.ar    1  UNL1       -0.0042
     26 C          65.8234   92.2403   12.8728 C.ar    1  UNL1       -0.0003
     27 C          66.2484   92.8685   11.5788 C.ar    1  UNL1       -0.0000
     28 C          65.4246   92.6678   10.3414 C.ar    1  UNL1       -0.0003
     29 C          64.1758   91.8387   10.3981 C.ar    1  UNL1       -0.0042
     30 C          62.9198   87.8353   12.0539 C.3     1  UNL1        0.0216
     31 C          62.6616   86.4285   11.6022 C.3     1  UNL1        0.0217
     32 C          63.0322   85.2762   12.4883 C.3     1  UNL1        0.0792
     33 N          62.9472   85.4190   13.9791 N.am    1  UNL1       -0.2720
     34 C          64.1763   85.2425   14.8207 C.2     1  UNL1        0.4019
     35 O          65.4902   84.9233   14.1715 O.2     1  UNL1       -0.2264
     36 H          62.0847   85.6286   14.4051 H       1  UNL1        0.1527
     37 O          64.0913   85.3853   16.3115 O.3     1  UNL1       -0.4291
     38 C          63.2250   86.4510   16.9146 C.3     1  UNL1        0.2447
     39 C          63.3925   87.8810   16.4937 C.ar    1  UNL1        0.0714
     40 C          62.8472   89.0807   17.2103 C.ar    1  UNL1        0.1053
     41 N          63.2523   90.3035   16.4417 N.ar    1  UNL1       -0.2350
     42 C          64.0479   89.8595   15.2501 C.ar    1  UNL1        0.1343
     43 S          64.1345   88.3624   15.2822 S.2     1  UNL1       -0.0652
     44 C          63.4877   83.9813   11.8836 C.3     1  UNL1        0.0460
     45 C          62.9701   82.6798   12.4205 C.ar    1  UNL1       -0.0205
     46 C          63.1792   81.4126   11.6455 C.ar    1  UNL1       -0.0042
     47 C          62.6616   80.1112   12.1824 C.ar    1  UNL1       -0.0003
     48 C          61.9349   80.0769   13.4942 C.ar    1  UNL1       -0.0000
     49 C          61.7259   81.3440   14.2691 C.ar    1  UNL1       -0.0003
     50 C          62.2435   82.6455   13.7323 C.ar    1  UNL1       -0.0042
@<TRIPOS>BOND
     1    14    15    1
     2    15    16   ar
     3    16    17   ar
     4    17    13    1
     5    13     7    1
     6     7     8    1
     7     7     9   am
     8     9    10    2
     9     9    11   am
    10     6    11    1
    11     6     2    1
    12     2     3    2
    13     2     4   am
    14     4     1    1
    15     1    30    1
    16    30    31    1
    17    32    31    1
    18    32    44    1
    19    44    45    1
    20    45    46   ar
    21    46    47   ar
    22    47    48   ar
    23    48    49   ar
    24    49    50   ar
    25    32    33    1
    26    33    34   am
    27    34    35    2
    28    34    37    1
    29    37    38    1
    30    38    39    1
    31    39    40   ar
    32    40    41   ar
    33    41    42   ar
    34    42    43   ar
    35     1    23    1
    36    23    24    1
    37    24    25   ar
    38    25    26   ar
    39    26    27   ar
    40    27    28   ar
    41    28    29   ar
    42     6    20    1
    43    20    21    1
    44    20    22    1
    45    17    18   ar
    46    18    19   ar
    47    19    15   ar
    48    50    45   ar
    49    43    39   ar
    50    29    24   ar
    51    11    12    1
    52     4     5    1
    53    33    36    1
