@<TRIPOS>MOLECULE
*****
 47 51 0 0 0
SMALL
GASTEIGER

@<TRIPOS>ATOM
      1 C          61.1702   89.4663   11.8313 C.ar    1  UNL1        0.1539
      2 N          60.4608   90.5323   11.0501 N.ar    1  UNL1       -0.1328
      3 N          60.1646   90.3237    9.5945 N.ar    1  UNL1       -0.1452
      4 C          60.5776   89.0491    8.9202 C.ar    1  UNL1        0.1223
      5 C          61.2870   87.9831    9.7014 C.ar    1  UNL1        0.0267
      6 C          61.7001   86.7084    9.0271 C.ar    1  UNL1        0.0386
      7 C          62.4095   85.6424    9.8084 C.ar    1  UNL1        0.1386
      8 C          62.7058   85.8510   11.2640 C.ar    1  UNL1        0.0370
      9 C          62.2927   87.1257   11.9383 C.ar    1  UNL1        0.0060
     10 C          61.5833   88.1917   11.1570 C.ar    1  UNL1        0.0352
     11 N          61.4666   89.6749   13.2869 N.pl3   1  UNL1       -0.2941
     12 H          60.7394   89.6279   13.9490 H       1  UNL1        0.1537
     13 N          64.9296   91.1166   14.2843 N.ar    1  UNL1       -0.2387
     14 C          63.5310   91.3014   13.7746 C.ar    1  UNL1        0.1118
     15 C          62.8708   89.9551   13.7338 C.ar    1  UNL1        0.0896
     16 C          63.8614   88.9383   14.2182 C.ar    1  UNL1        0.1363
     17 N          65.1338   89.6561   14.5585 N.ar    1  UNL1       -0.1658
     18 C          65.9456   92.2018   14.4846 C.3     1  UNL1        0.2122
     19 O          68.0177   92.6908   12.9957 O.2     1  UNL1       -0.2726
     20 C          66.5608   92.8815   13.2975 C.2     1  UNL1        0.2510
     21 N          65.7192   93.7521   12.4121 N.am    1  UNL1       -0.2805
     22 H          64.7630   93.8772   12.6102 H       1  UNL1        0.1550
     23 C          66.3345   94.4319   11.2250 C.ar    1  UNL1        0.0804
     24 C          66.3531   95.9296   11.1446 C.ar    1  UNL1        0.0171
     25 C          66.9684   96.6094    9.9575 C.ar    1  UNL1        0.0037
     26 C          67.5651   95.7915    8.8507 C.ar    1  UNL1        0.0321
     27 C          67.5465   94.2937    8.9310 C.ar    1  UNL1        0.1686
     28 F          68.1431   93.4757    7.8243 F       1  UNL1       -0.2018
     29 C          66.9312   93.6139   10.1182 C.ar    1  UNL1        0.1807
     30 F          66.9126   92.1161   10.1985 F       1  UNL1       -0.2005
     31 O          62.8226   84.3678    9.1341 O.3     1  UNL1       -0.4754
     32 C          64.1474   83.7434    9.4576 C.3     1  UNL1        0.2068
     33 C          64.2065   82.5029   10.2988 C.3     1  UNL1        0.0646
     34 C          64.3804   82.6118   11.7847 C.3     1  UNL1        0.0760
     35 N          63.3421   82.0421   12.7051 N.3     1  UNL1       -0.2716
     36 C          62.6747   80.7063   12.5623 C.3     1  UNL1        0.0722
     37 C          61.7090   80.5467   13.6989 C.3     1  UNL1        0.0188
     38 C          61.7795   81.7838   14.5442 C.3     1  UNL1        0.0200
     39 C          62.7888   82.7081   13.9301 C.3     1  UNL1        0.0879
     40 C          63.1767   84.0606   14.4495 C.3     1  UNL1        0.1694
     41 O          62.2130   84.8467   15.2883 O.3     1  UNL1       -0.2720
     42 P          62.7042   85.5978   16.4902 P.3     1  UNL1        0.4731
     43 O          61.2891   85.9287   16.8617 O.2     1  UNL1       -0.2275
     44 O          64.1193   85.2669   16.1186 O.3     1  UNL1       -0.3026
     45 O          63.1953   86.3489   17.6920 O.3     1  UNL1       -0.3026
     46 H          64.1248   84.7376   15.3058 H       1  UNL1        0.2220
     47 H          62.4385   86.7125   18.1776 H       1  UNL1        0.2220
@<TRIPOS>BOND
     1    19    20    2
     2    20    18    1
     3    18    13    1
     4    13    14   ar
     5    14    15   ar
     6    15    11    1
     7    11     1    1
     8     1     2   ar
     9     2     3   ar
    10     3     4   ar
    11     4     5   ar
    12     5     6   ar
    13     6     7   ar
    14     7    31    1
    15    31    32    1
    16    32    33    1
    17    33    34    1
    18    34    35    1
    19    35    36    1
    20    36    37    1
    21    37    38    1
    22    38    39    1
    23    39    40    1
    24    40    41    1
    25    41    42    1
    26    42    43    2
    27    42    44    1
    28    42    45    1
    29     7     8   ar
    30     8     9   ar
    31     9    10   ar
    32    15    16   ar
    33    16    17   ar
    34    20    21   am
    35    21    23    1
    36    23    24   ar
    37    24    25   ar
    38    25    26   ar
    39    26    27   ar
    40    27    28    1
    41    27    29   ar
    42    29    30    1
    43    17    13   ar
    44    29    23   ar
    45    10     1   ar
    46    10     5   ar
    47    39    35    1
    48    11    12    1
    49    44    46    1
    50    45    47    1
    51    21    22    1
@<TRIPOS>MOLECULE
*****
 47 51 0 0 0
SMALL
GASTEIGER

@<TRIPOS>ATOM
      1 C          63.8616   85.5573   15.8814 C.ar    1  UNL1        0.1539
      2 N          62.9303   84.8666   16.8329 N.ar    1  UNL1       -0.1328
      3 N          62.0151   85.6737   17.7052 N.ar    1  UNL1       -0.1452
      4 C          62.0313   87.1715   17.6260 C.ar    1  UNL1        0.1223
      5 C          62.9627   87.8622   16.6745 C.ar    1  UNL1        0.0267
      6 C          62.9789   89.3601   16.5953 C.ar    1  UNL1        0.0386
      7 C          63.9102   90.0508   15.6437 C.ar    1  UNL1        0.1386
      8 C          64.8254   89.2436   14.7713 C.ar    1  UNL1        0.0370
      9 C          64.8092   87.7458   14.8505 C.ar    1  UNL1        0.0060
     10 C          63.8778   87.0551   15.8021 C.ar    1  UNL1        0.0352
     11 N          64.7768   84.7502   15.0090 N.pl3   1  UNL1       -0.2941
     12 H          65.7372   84.6970   15.2192 H       1  UNL1        0.1537
     13 N          63.6407   83.4510   11.5323 N.ar    1  UNL1       -0.2387
     14 C          64.3195   84.4779   12.3895 C.ar    1  UNL1        0.1118
     15 C          64.2289   84.0241   13.8163 C.ar    1  UNL1        0.0896
     16 C          63.4940   82.7167   13.8409 C.ar    1  UNL1        0.1363
     17 N          63.1304   82.3625   12.4294 N.ar    1  UNL1       -0.1658
     18 C          63.4973   83.5035   10.0401 C.3     1  UNL1        0.2122
     19 O          63.1769   85.0652    7.9888 O.2     1  UNL1       -0.2726
     20 C          62.8202   84.6747    9.3925 C.2     1  UNL1        0.2510
     21 N          61.7864   85.4556   10.1484 N.am    1  UNL1       -0.2805
     22 H          61.5523   85.1993   11.0697 H       1  UNL1        0.1550
     23 C          61.1093   86.6270    9.5007 C.ar    1  UNL1        0.0804
     24 C          60.1511   86.4071    8.3678 C.ar    1  UNL1        0.0171
     25 C          59.4740   87.5784    7.7201 C.ar    1  UNL1        0.0037
     26 C          59.7551   88.9697    8.2053 C.ar    1  UNL1        0.0321
     27 C          60.7133   89.1896    9.3383 C.ar    1  UNL1        0.1686
     28 F          60.9945   90.5808    9.8236 F       1  UNL1       -0.2018
     29 C          61.3904   88.0183    9.9860 C.ar    1  UNL1        0.1807
     30 F          62.3486   88.2381   11.1189 F       1  UNL1       -0.2005
     31 O          63.9264   91.5486   15.5645 O.3     1  UNL1       -0.4754
     32 C          65.1943   92.3006   15.8418 C.3     1  UNL1        0.2068
     33 C          66.2913   92.3243   14.8191 C.3     1  UNL1        0.0646
     34 C          66.1478   93.1643   13.5847 C.3     1  UNL1        0.0760
     35 N          65.3566   92.6532   12.4174 N.3     1  UNL1       -0.2716
     36 C          64.3760   91.5184   12.4459 C.3     1  UNL1        0.0722
     37 C          63.8204   91.3510   11.0627 C.3     1  UNL1        0.0188
     38 C          64.4575   92.3822   10.1793 C.3     1  UNL1        0.0200
     39 C          65.4070   93.1871   11.0164 C.3     1  UNL1        0.0879
     40 C          66.2574   94.3258   10.5370 C.3     1  UNL1        0.1694
     41 O          67.7323   94.1313   10.3444 O.3     1  UNL1       -0.2720
     42 P          68.2332   93.1823    9.2963 P.3     1  UNL1        0.4731
     43 O          68.7406   92.2651   10.3693 O.2     1  UNL1       -0.2275
     44 O          67.7258   94.0996    8.2234 O.3     1  UNL1       -0.3026
     45 O          68.7342   92.2334    8.2483 O.3     1  UNL1       -0.3026
     46 H          67.3110   94.8758    8.6312 H       1  UNL1        0.2220
     47 H          69.1515   91.4696    8.6765 H       1  UNL1        0.2220
@<TRIPOS>BOND
     1    19    20    2
     2    20    18    1
     3    18    13    1
     4    13    14   ar
     5    14    15   ar
     6    15    11    1
     7    11     1    1
     8     1     2   ar
     9     2     3   ar
    10     3     4   ar
    11     4     5   ar
    12     5     6   ar
    13     6     7   ar
    14     7    31    1
    15    31    32    1
    16    32    33    1
    17    33    34    1
    18    34    35    1
    19    35    36    1
    20    36    37    1
    21    37    38    1
    22    38    39    1
    23    39    40    1
    24    40    41    1
    25    41    42    1
    26    42    43    2
    27    42    44    1
    28    42    45    1
    29     7     8   ar
    30     8     9   ar
    31     9    10   ar
    32    15    16   ar
    33    16    17   ar
    34    20    21   am
    35    21    23    1
    36    23    24   ar
    37    24    25   ar
    38    25    26   ar
    39    26    27   ar
    40    27    28    1
    41    27    29   ar
    42    29    30    1
    43    17    13   ar
    44    29    23   ar
    45    10     1   ar
    46    10     5   ar
    47    39    35    1
    48    11    12    1
    49    44    46    1
    50    45    47    1
    51    21    22    1
@<TRIPOS>MOLECULE
*****
 47 51 0 0 0
SMALL
GASTEIGER

@<TRIPOS>ATOM
      1 C          63.8612   85.6251   16.3133 C.ar    1  UNL1        0.1539
      2 N          63.1032   85.2651   17.5566 N.ar    1  UNL1       -0.1328
      3 N          62.3412   86.3201   18.3023 N.ar    1  UNL1       -0.1452
      4 C          62.3373   87.7352   17.8048 C.ar    1  UNL1        0.1223
      5 C          63.0953   88.0953   16.5616 C.ar    1  UNL1        0.0267
      6 C          63.0913   89.5104   16.0641 C.ar    1  UNL1        0.0386
      7 C          63.8493   89.8704   14.8208 C.ar    1  UNL1        0.1386
      8 C          64.6113   88.8153   14.0750 C.ar    1  UNL1        0.0370
      9 C          64.6153   87.4002   14.5725 C.ar    1  UNL1        0.0060
     10 C          63.8573   87.0402   15.8158 C.ar    1  UNL1        0.0352
     11 N          64.6232   84.5701   15.5674 N.pl3   1  UNL1       -0.2941
     12 H          65.5221   84.3056   15.8698 H       1  UNL1        0.1537
     13 N          63.4313   83.4079   12.0611 N.ar    1  UNL1       -0.2387
     14 C          64.2255   84.3330   12.9348 C.ar    1  UNL1        0.1118
     15 C          64.0158   83.9179   14.3609 C.ar    1  UNL1        0.0896
     16 C          63.0919   82.7363   14.3686 C.ar    1  UNL1        0.1363
     17 N          62.7306   82.4210   12.9473 N.ar    1  UNL1       -0.1658
     18 C          63.3517   83.4604   10.5642 C.3     1  UNL1        0.2122
     19 O          63.2787   85.0502    8.5107 O.2     1  UNL1       -0.2726
     20 C          62.8039   84.6802    9.8846 C.2     1  UNL1        0.2510
     21 N          61.7813   85.5300   10.5789 N.am    1  UNL1       -0.2805
     22 H          61.4696   85.2871   11.4806 H       1  UNL1        0.1550
     23 C          61.2334   86.7499    9.8993 C.ar    1  UNL1        0.0804
     24 C          60.1981   86.6077    8.8232 C.ar    1  UNL1        0.0171
     25 C          59.6503   87.8276    8.1436 C.ar    1  UNL1        0.0037
     26 C          60.1378   89.1896    8.5401 C.ar    1  UNL1        0.0321
     27 C          61.1732   89.3318    9.6162 C.ar    1  UNL1        0.1686
     28 F          61.6608   90.6938   10.0126 F       1  UNL1       -0.2018
     29 C          61.7210   88.1119   10.2958 C.ar    1  UNL1        0.1807
     30 F          62.7563   88.2541   11.3718 F       1  UNL1       -0.2005
     31 O          63.8453   91.2855   14.3233 O.3     1  UNL1       -0.4754
     32 C          63.5183   91.5751   12.8884 C.3     1  UNL1        0.2068
     33 C          64.6189   91.6796   11.8746 C.3     1  UNL1        0.0646
     34 C          65.4265   92.9394   11.7716 C.3     1  UNL1        0.0760
     35 N          66.6095   92.9987   10.8513 N.3     1  UNL1       -0.2716
     36 C          66.6625   93.7026    9.5278 C.3     1  UNL1        0.0722
     37 C          68.0330   93.5035    8.9514 C.3     1  UNL1        0.0188
     38 C          68.8270   92.6766    9.9187 C.3     1  UNL1        0.0200
     39 C          67.9473   92.3646   11.0930 C.3     1  UNL1        0.0879
     40 C          68.3369   91.5599   12.2973 C.3     1  UNL1        0.1694
     41 O          67.5568   91.6914   13.5717 O.3     1  UNL1       -0.2720
     42 P          68.0648   92.5719   14.6747 P.3     1  UNL1        0.4731
     43 O          66.6534   92.8819   15.0773 O.2     1  UNL1       -0.2275
     44 O          69.4761   92.2619   14.2721 O.3     1  UNL1       -0.3026
     45 O          68.5727   93.4524   15.7776 O.3     1  UNL1       -0.3026
     46 H          69.4706   91.6583   13.5128 H       1  UNL1        0.2220
     47 H          67.8218   93.8312   16.2608 H       1  UNL1        0.2220
@<TRIPOS>BOND
     1    19    20    2
     2    20    18    1
     3    18    13    1
     4    13    14   ar
     5    14    15   ar
     6    15    11    1
     7    11     1    1
     8     1     2   ar
     9     2     3   ar
    10     3     4   ar
    11     4     5   ar
    12     5     6   ar
    13     6     7   ar
    14     7    31    1
    15    31    32    1
    16    32    33    1
    17    33    34    1
    18    34    35    1
    19    35    36    1
    20    36    37    1
    21    37    38    1
    22    38    39    1
    23    39    40    1
    24    40    41    1
    25    41    42    1
    26    42    43    2
    27    42    44    1
    28    42    45    1
    29     7     8   ar
    30     8     9   ar
    31     9    10   ar
    32    15    16   ar
    33    16    17   ar
    34    20    21   am
    35    21    23    1
    36    23    24   ar
    37    24    25   ar
    38    25    26   ar
    39    26    27   ar
    40    27    28    1
    41    27    29   ar
    42    29    30    1
    43    17    13   ar
    44    29    23   ar
    45    10     1   ar
    46    10     5   ar
    47    39    35    1
    48    11    12    1
    49    44    46    1
    50    45    47    1
    51    21    22    1
@<TRIPOS>MOLECULE
*****
 47 51 0 0 0
SMALL
GASTEIGER

@<TRIPOS>ATOM
      1 C          62.6660   84.7901    8.5341 C.ar    1  UNL1        0.1539
      2 N          62.0711   84.4441    7.2014 N.ar    1  UNL1       -0.1328
      3 N          60.8648   85.1838    6.7037 N.ar    1  UNL1       -0.1452
      4 C          60.2535   86.2696    7.5388 C.ar    1  UNL1        0.1223
      5 C          60.8485   86.6156    8.8716 C.ar    1  UNL1        0.0267
      6 C          60.2372   87.7014    9.7067 C.ar    1  UNL1        0.0386
      7 C          60.8321   88.0474   11.0394 C.ar    1  UNL1        0.1386
      8 C          62.0384   87.3076   11.5372 C.ar    1  UNL1        0.0370
      9 C          62.6497   86.2218   10.7020 C.ar    1  UNL1        0.0060
     10 C          62.0547   85.8759    9.3692 C.ar    1  UNL1        0.0352
     11 N          63.8723   84.0503    9.0318 N.pl3   1  UNL1       -0.2941
     12 H          64.7307   84.1322    8.5567 H       1  UNL1        0.1537
     13 N          63.7758   82.4470   12.5653 N.ar    1  UNL1       -0.2387
     14 C          63.9722   83.6347   11.6704 C.ar    1  UNL1        0.1118
     15 C          63.7707   83.1858   10.2534 C.ar    1  UNL1        0.0896
     16 C          63.4498   81.7207   10.2726 C.ar    1  UNL1        0.1363
     17 N          63.4530   81.2640   11.7014 N.ar    1  UNL1       -0.1658
     18 C          63.8834   82.4429   14.0614 C.3     1  UNL1        0.2122
     19 O          62.0136   83.6475   15.4040 O.2     1  UNL1       -0.2726
     20 C          63.4077   83.6263   14.8508 C.2     1  UNL1        0.2510
     21 N          64.3260   84.7886   15.0869 N.am    1  UNL1       -0.2805
     22 H          65.2410   84.7747   14.7238 H       1  UNL1        0.1550
     23 C          63.8502   85.9721   15.8763 C.ar    1  UNL1        0.0804
     24 C          63.3082   85.7807   17.2617 C.ar    1  UNL1        0.0171
     25 C          62.8324   86.9641   18.0511 C.ar    1  UNL1        0.0037
     26 C          62.8987   88.3390   17.4550 C.ar    1  UNL1        0.0321
     27 C          63.4408   88.5305   16.0695 C.ar    1  UNL1        0.1686
     28 F          63.5071   89.9052   15.4733 F       1  UNL1       -0.2018
     29 C          63.9165   87.3470   15.2801 C.ar    1  UNL1        0.1807
     30 F          64.4586   87.5384   13.8946 F       1  UNL1       -0.2005
     31 O          60.2208   89.1332   11.8746 O.3     1  UNL1       -0.4754
     32 C          60.7937   90.5190   11.8393 C.3     1  UNL1        0.2068
     33 C          62.1531   90.7538   11.2503 C.3     1  UNL1        0.0646
     34 C          63.3564   90.8186   12.1434 C.3     1  UNL1        0.0760
     35 N          64.4834   91.7532   11.8169 N.3     1  UNL1       -0.2716
     36 C          64.7847   92.3333   10.4668 C.3     1  UNL1        0.0722
     37 C          65.9944   93.2103   10.5986 C.3     1  UNL1        0.0188
     38 C          66.4407   93.1723   12.0301 C.3     1  UNL1        0.0200
     39 C          65.5069   92.2718   12.7832 C.3     1  UNL1        0.0879
     40 C          65.5832   91.9468   14.2455 C.3     1  UNL1        0.1694
     41 O          66.9183   91.7715   14.9063 O.3     1  UNL1       -0.2720
     42 P          67.6164   92.9529   15.5121 P.3     1  UNL1        0.4731
     43 O          68.7613   92.7637   14.5616 O.2     1  UNL1       -0.2275
     44 O          66.4714   93.1419   16.4626 O.3     1  UNL1       -0.3026
     45 O          68.3144   94.1342   16.1179 O.3     1  UNL1       -0.3026
     46 H          65.7990   92.4624   16.2981 H       1  UNL1        0.2220
     47 H          69.1629   94.2735   15.6690 H       1  UNL1        0.2220
@<TRIPOS>BOND
     1    19    20    2
     2    20    18    1
     3    18    13    1
     4    13    14   ar
     5    14    15   ar
     6    15    11    1
     7    11     1    1
     8     1     2   ar
     9     2     3   ar
    10     3     4   ar
    11     4     5   ar
    12     5     6   ar
    13     6     7   ar
    14     7    31    1
    15    31    32    1
    16    32    33    1
    17    33    34    1
    18    34    35    1
    19    35    36    1
    20    36    37    1
    21    37    38    1
    22    38    39    1
    23    39    40    1
    24    40    41    1
    25    41    42    1
    26    42    43    2
    27    42    44    1
    28    42    45    1
    29     7     8   ar
    30     8     9   ar
    31     9    10   ar
    32    15    16   ar
    33    16    17   ar
    34    20    21   am
    35    21    23    1
    36    23    24   ar
    37    24    25   ar
    38    25    26   ar
    39    26    27   ar
    40    27    28    1
    41    27    29   ar
    42    29    30    1
    43    17    13   ar
    44    29    23   ar
    45    10     1   ar
    46    10     5   ar
    47    39    35    1
    48    11    12    1
    49    44    46    1
    50    45    47    1
    51    21    22    1
@<TRIPOS>MOLECULE
*****
 47 51 0 0 0
SMALL
GASTEIGER

@<TRIPOS>ATOM
      1 C          59.9568   88.0401    9.4850 C.ar    1  UNL1        0.1539
      2 N          59.0499   88.2402    8.3070 N.ar    1  UNL1       -0.1328
      3 N          59.1493   87.3278    7.1206 N.ar    1  UNL1       -0.1452
      4 C          60.1555   86.2154    7.1121 C.ar    1  UNL1        0.1223
      5 C          61.0623   86.0153    8.2900 C.ar    1  UNL1        0.0267
      6 C          62.0685   84.9029    8.2815 C.ar    1  UNL1        0.0386
      7 C          62.9754   84.7029    9.4595 C.ar    1  UNL1        0.1386
      8 C          62.8760   85.6153   10.6460 C.ar    1  UNL1        0.0370
      9 C          61.8699   86.7277   10.6545 C.ar    1  UNL1        0.0060
     10 C          60.9630   86.9277    9.4765 C.ar    1  UNL1        0.0352
     11 N          59.8575   88.9526   10.6715 N.pl3   1  UNL1       -0.2941
     12 H          58.9963   89.0652   11.1351 H       1  UNL1        0.1537
     13 N          63.0699   91.0682   11.1907 N.ar    1  UNL1       -0.2387
     14 C          61.9989   90.5090   10.3018 C.ar    1  UNL1        0.1118
     15 C          61.0703   89.6933   11.1515 C.ar    1  UNL1        0.0896
     16 C          61.5674   89.7483   12.5657 C.ar    1  UNL1        0.1363
     17 N          62.8032   90.5980   12.5899 N.ar    1  UNL1       -0.1658
     18 C          64.2079   91.9438   10.7566 C.3     1  UNL1        0.2122
     19 O          65.9918   93.6641   11.5362 O.2     1  UNL1       -0.2726
     20 C          65.2363   92.3869   11.7546 C.2     1  UNL1        0.2510
     21 N          65.5091   91.5526   12.9710 N.am    1  UNL1       -0.2805
     22 H          65.0132   90.7143   13.1143 H       1  UNL1        0.1550
     23 C          66.5376   91.9957   13.9690 C.ar    1  UNL1        0.0804
     24 C          66.1121   92.4434   15.3359 C.ar    1  UNL1        0.0171
     25 C          67.1406   92.8865   16.3339 C.ar    1  UNL1        0.0037
     26 C          68.5945   92.8818   15.9650 C.ar    1  UNL1        0.0321
     27 C          69.0200   92.4340   14.5981 C.ar    1  UNL1        0.1686
     28 F          70.4739   92.4293   14.2291 F       1  UNL1       -0.2018
     29 C          67.9916   91.9910   13.6000 C.ar    1  UNL1        0.1807
     30 F          68.4170   91.5433   12.2331 F       1  UNL1       -0.2005
     31 O          63.9816   83.5904    9.4510 O.3     1  UNL1       -0.4754
     32 C          63.9751   82.5650   10.5457 C.3     1  UNL1        0.2068
     33 C          64.7820   82.7910   11.7898 C.3     1  UNL1        0.0646
     34 C          64.6312   81.8649   12.9600 C.3     1  UNL1        0.0760
     35 N          63.2658   81.4205   13.3938 N.3     1  UNL1       -0.2716
     36 C          62.6838   80.0507   13.2075 C.3     1  UNL1        0.0722
     37 C          61.3009   80.0515   13.7887 C.3     1  UNL1        0.0188
     38 C          61.0283   81.4220   14.3341 C.3     1  UNL1        0.0200
     39 C          62.2426   82.2681   14.0901 C.3     1  UNL1        0.0879
     40 C          62.4052   83.7087   14.4748 C.3     1  UNL1        0.1694
     41 O          62.4044   84.1034   15.9220 O.3     1  UNL1       -0.2720
     42 P          62.8459   85.4793   16.3245 P.3     1  UNL1        0.4731
     43 O          61.4561   85.7868   16.7977 O.2     1  UNL1       -0.2275
     44 O          64.2357   85.1716   15.8513 O.3     1  UNL1       -0.3026
     45 O          63.2874   86.8550   16.7271 O.3     1  UNL1       -0.3026
     46 H          64.2660   84.2665   15.5039 H       1  UNL1        0.2220
     47 H          62.5352   87.3391   17.1023 H       1  UNL1        0.2220
@<TRIPOS>BOND
     1    19    20    2
     2    20    18    1
     3    18    13    1
     4    13    14   ar
     5    14    15   ar
     6    15    11    1
     7    11     1    1
     8     1     2   ar
     9     2     3   ar
    10     3     4   ar
    11     4     5   ar
    12     5     6   ar
    13     6     7   ar
    14     7    31    1
    15    31    32    1
    16    32    33    1
    17    33    34    1
    18    34    35    1
    19    35    36    1
    20    36    37    1
    21    37    38    1
    22    38    39    1
    23    39    40    1
    24    40    41    1
    25    41    42    1
    26    42    43    2
    27    42    44    1
    28    42    45    1
    29     7     8   ar
    30     8     9   ar
    31     9    10   ar
    32    15    16   ar
    33    16    17   ar
    34    20    21   am
    35    21    23    1
    36    23    24   ar
    37    24    25   ar
    38    25    26   ar
    39    26    27   ar
    40    27    28    1
    41    27    29   ar
    42    29    30    1
    43    17    13   ar
    44    29    23   ar
    45    10     1   ar
    46    10     5   ar
    47    39    35    1
    48    11    12    1
    49    44    46    1
    50    45    47    1
    51    21    22    1
@<TRIPOS>MOLECULE
*****
 47 51 0 0 0
SMALL
GASTEIGER

@<TRIPOS>ATOM
      1 C          62.6301   84.8293    8.5145 C.ar    1  UNL1        0.1539
      2 N          61.9376   84.4643    7.2350 N.ar    1  UNL1       -0.1328
      3 N          60.7496   85.2551    6.7731 N.ar    1  UNL1       -0.1452
      4 C          60.2542   86.4109    7.5908 C.ar    1  UNL1        0.1223
      5 C          60.9467   86.7759    8.8703 C.ar    1  UNL1        0.0267
      6 C          60.4512   87.9318    9.6880 C.ar    1  UNL1        0.0386
      7 C          61.1437   88.2968   10.9675 C.ar    1  UNL1        0.1386
      8 C          62.3318   87.5059   11.4294 C.ar    1  UNL1        0.0370
      9 C          62.8272   86.3501   10.6117 C.ar    1  UNL1        0.0060
     10 C          62.1346   85.9851    9.3321 C.ar    1  UNL1        0.0352
     11 N          63.8181   84.0385    8.9764 N.pl3   1  UNL1       -0.2941
     12 H          64.6664   84.0887    8.4792 H       1  UNL1        0.1537
     13 N          63.7292   82.4233   12.5047 N.ar    1  UNL1       -0.2387
     14 C          63.9375   83.6109   11.6123 C.ar    1  UNL1        0.1118
     15 C          63.7136   83.1712   10.1957 C.ar    1  UNL1        0.0896
     16 C          63.3669   81.7119   10.2127 C.ar    1  UNL1        0.1363
     17 N          63.3766   81.2497   11.6397 N.ar    1  UNL1       -0.1658
     18 C          63.8520   82.4116   13.9996 C.3     1  UNL1        0.2122
     19 O          61.9225   83.6476   15.2239 O.2     1  UNL1       -0.2726
     20 C          63.3602   83.5797   14.8017 C.2     1  UNL1        0.2510
     21 N          64.3061   84.6801   15.1817 N.am    1  UNL1       -0.2805
     22 H          65.2498   84.6356   14.9046 H       1  UNL1        0.1550
     23 C          63.8143   85.8483   15.9839 C.ar    1  UNL1        0.0804
     24 C          63.2124   85.6268   17.3398 C.ar    1  UNL1        0.0171
     25 C          62.7206   86.7950   18.1420 C.ar    1  UNL1        0.0037
     26 C          62.8307   88.1847   17.5882 C.ar    1  UNL1        0.0321
     27 C          63.4327   88.4062   16.2321 C.ar    1  UNL1        0.1686
     28 F          63.5428   89.7958   15.6783 F       1  UNL1       -0.2018
     29 C          63.9245   87.2380   15.4300 C.ar    1  UNL1        0.1807
     30 F          64.5264   87.4595   14.0740 F       1  UNL1       -0.2005
     31 O          60.6483   89.4526   11.7851 O.3     1  UNL1       -0.4754
     32 C          61.4740   90.6997   11.8986 C.3     1  UNL1        0.2068
     33 C          62.8153   90.6527   12.5685 C.3     1  UNL1        0.0646
     34 C          63.9621   91.4397   12.0070 C.3     1  UNL1        0.0760
     35 N          65.1455   91.7612   12.8709 N.3     1  UNL1       -0.2716
     36 C          65.5628   91.0196   14.1061 C.3     1  UNL1        0.0722
     37 C          66.7945   91.6809   14.6499 C.3     1  UNL1        0.0188
     38 C          67.1384   92.8312   13.7507 C.3     1  UNL1        0.0200
     39 C          66.1193   92.8809   12.6512 C.3     1  UNL1        0.0879
     40 C          66.0807   93.8755   11.5291 C.3     1  UNL1        0.1694
     41 O          66.7460   93.5586   10.2226 O.3     1  UNL1       -0.2720
     42 P          67.3607   94.6577    9.4078 P.3     1  UNL1        0.4731
     43 O          68.7045   94.0045    9.5404 O.2     1  UNL1       -0.2275
     44 O          66.0169   95.3109    9.2752 O.3     1  UNL1       -0.3026
     45 O          67.9754   95.7568    8.5930 O.3     1  UNL1       -0.3026
     46 H          65.3525   94.7815    9.7434 H       1  UNL1        0.2220
     47 H          68.9272   95.5955    8.4982 H       1  UNL1        0.2220
@<TRIPOS>BOND
     1    19    20    2
     2    20    18    1
     3    18    13    1
     4    13    14   ar
     5    14    15   ar
     6    15    11    1
     7    11     1    1
     8     1     2   ar
     9     2     3   ar
    10     3     4   ar
    11     4     5   ar
    12     5     6   ar
    13     6     7   ar
    14     7    31    1
    15    31    32    1
    16    32    33    1
    17    33    34    1
    18    34    35    1
    19    35    36    1
    20    36    37    1
    21    37    38    1
    22    38    39    1
    23    39    40    1
    24    40    41    1
    25    41    42    1
    26    42    43    2
    27    42    44    1
    28    42    45    1
    29     7     8   ar
    30     8     9   ar
    31     9    10   ar
    32    15    16   ar
    33    16    17   ar
    34    20    21   am
    35    21    23    1
    36    23    24   ar
    37    24    25   ar
    38    25    26   ar
    39    26    27   ar
    40    27    28    1
    41    27    29   ar
    42    29    30    1
    43    17    13   ar
    44    29    23   ar
    45    10     1   ar
    46    10     5   ar
    47    39    35    1
    48    11    12    1
    49    44    46    1
    50    45    47    1
    51    21    22    1
@<TRIPOS>MOLECULE
*****
 47 51 0 0 0
SMALL
GASTEIGER

@<TRIPOS>ATOM
      1 C          63.8068   85.5038   16.2295 C.ar    1  UNL1        0.1539
      2 N          63.0266   85.0955   17.4438 N.ar    1  UNL1       -0.1328
      3 N          62.2613   86.1229   18.2240 N.ar    1  UNL1       -0.1452
      4 C          62.2762   87.5586   17.7898 C.ar    1  UNL1        0.1223
      5 C          63.0564   87.9670   16.5755 C.ar    1  UNL1        0.0267
      6 C          63.0712   89.4027   16.1414 C.ar    1  UNL1        0.0386
      7 C          63.8514   89.8110   14.9271 C.ar    1  UNL1        0.1386
      8 C          64.6168   88.7835   14.1469 C.ar    1  UNL1        0.0370
      9 C          64.6019   87.3478   14.5810 C.ar    1  UNL1        0.0060
     10 C          63.8217   86.9395   15.7954 C.ar    1  UNL1        0.0352
     11 N          64.5721   84.4764   15.4493 N.pl3   1  UNL1       -0.2941
     12 H          65.4686   84.1992   15.7473 H       1  UNL1        0.1537
     13 N          63.3411   83.4924   11.9022 N.ar    1  UNL1       -0.2387
     14 C          64.0939   84.4092   12.8203 C.ar    1  UNL1        0.1118
     15 C          63.9716   83.8713   14.2152 C.ar    1  UNL1        0.0896
     16 C          63.1433   82.6220   14.1591 C.ar    1  UNL1        0.1363
     17 N          62.7536   82.3878   12.7297 N.ar    1  UNL1       -0.1658
     18 C          63.2006   83.6521   10.4174 C.3     1  UNL1        0.2122
     19 O          63.2269   85.4101    8.5047 O.2     1  UNL1       -0.2726
     20 C          62.7288   84.9556    9.8446 C.2     1  UNL1        0.2510
     21 N          61.7590   85.8047   10.6117 N.am    1  UNL1       -0.2805
     22 H          61.4321   85.5064   11.4912 H       1  UNL1        0.1550
     23 C          61.2872   87.1083   10.0389 C.ar    1  UNL1        0.0804
     24 C          61.7729   88.4027   10.6207 C.ar    1  UNL1        0.0171
     25 C          61.3011   89.7063   10.0480 C.ar    1  UNL1        0.0037
     26 C          60.3436   89.7155    8.8934 C.ar    1  UNL1        0.0321
     27 C          59.8578   88.4210    8.3115 C.ar    1  UNL1        0.1686
     28 F          58.9003   88.4301    7.1570 F       1  UNL1       -0.2018
     29 C          60.3296   87.1174    8.8843 C.ar    1  UNL1        0.1807
     30 F          59.8439   85.8230    8.3025 F       1  UNL1       -0.2005
     31 O          63.8663   91.2467   14.4930 O.3     1  UNL1       -0.4754
     32 C          63.4085   91.6179   13.1136 C.3     1  UNL1        0.2068
     33 C          64.2412   91.2479   11.9221 C.3     1  UNL1        0.0646
     34 C          65.7025   91.5854   11.8943 C.3     1  UNL1        0.0760
     35 N          66.3378   92.2650   13.0710 N.3     1  UNL1       -0.2716
     36 C          66.8764   91.5871   14.2958 C.3     1  UNL1        0.0722
     37 C          67.4175   92.6450   15.2112 C.3     1  UNL1        0.0188
     38 C          67.2132   93.9769   14.5521 C.3     1  UNL1        0.0200
     39 C          66.5459   93.7421   13.2294 C.3     1  UNL1        0.0879
     40 C          66.1554   94.7987   12.2390 C.3     1  UNL1        0.1694
     41 O          67.0868   95.1587   11.1197 O.3     1  UNL1       -0.2720
     42 P          66.5624   95.2906    9.7205 P.3     1  UNL1        0.4731
     43 O          67.9416   95.0520    9.1811 O.2     1  UNL1       -0.2275
     44 O          65.1832   95.5292   10.2600 O.3     1  UNL1       -0.3026
     45 O          66.0380   95.4225    8.3214 O.3     1  UNL1       -0.3026
     46 H          65.2057   95.5002   11.2293 H       1  UNL1        0.2220
     47 H          66.7658   95.3055    7.6910 H       1  UNL1        0.2220
@<TRIPOS>BOND
     1    19    20    2
     2    20    18    1
     3    18    13    1
     4    13    14   ar
     5    14    15   ar
     6    15    11    1
     7    11     1    1
     8     1     2   ar
     9     2     3   ar
    10     3     4   ar
    11     4     5   ar
    12     5     6   ar
    13     6     7   ar
    14     7    31    1
    15    31    32    1
    16    32    33    1
    17    33    34    1
    18    34    35    1
    19    35    36    1
    20    36    37    1
    21    37    38    1
    22    38    39    1
    23    39    40    1
    24    40    41    1
    25    41    42    1
    26    42    43    2
    27    42    44    1
    28    42    45    1
    29     7     8   ar
    30     8     9   ar
    31     9    10   ar
    32    15    16   ar
    33    16    17   ar
    34    20    21   am
    35    21    23    1
    36    23    24   ar
    37    24    25   ar
    38    25    26   ar
    39    26    27   ar
    40    27    28    1
    41    27    29   ar
    42    29    30    1
    43    17    13   ar
    44    29    23   ar
    45    10     1   ar
    46    10     5   ar
    47    39    35    1
    48    11    12    1
    49    44    46    1
    50    45    47    1
    51    21    22    1
@<TRIPOS>MOLECULE
*****
 47 51 0 0 0
SMALL
GASTEIGER

@<TRIPOS>ATOM
      1 C          61.3657   85.9691    8.3117 C.ar    1  UNL1        0.1539
      2 N          60.0693   85.6624    7.6224 N.ar    1  UNL1       -0.1328
      3 N          58.8924   86.5757    7.7978 N.ar    1  UNL1       -0.1452
      4 C          59.0120   87.7956    8.6623 C.ar    1  UNL1        0.1223
      5 C          60.3084   88.1023    9.3515 C.ar    1  UNL1        0.0267
      6 C          60.4280   89.3222   10.2161 C.ar    1  UNL1        0.0386
      7 C          61.7245   89.6289   10.9053 C.ar    1  UNL1        0.1386
      8 C          62.9015   88.7156   10.7300 C.ar    1  UNL1        0.0370
      9 C          62.7819   87.4957    9.8654 C.ar    1  UNL1        0.0060
     10 C          61.4853   87.1890    9.1762 C.ar    1  UNL1        0.0352
     11 N          62.5427   85.0558    8.1363 N.pl3   1  UNL1       -0.2941
     12 H          62.9394   84.9297    7.2441 H       1  UNL1        0.1537
     13 N          63.4842   83.5464   11.5861 N.ar    1  UNL1       -0.2387
     14 C          62.6231   84.4309   10.7341 C.ar    1  UNL1        0.1118
     15 C          63.1153   84.3346    9.3204 C.ar    1  UNL1        0.0896
     16 C          64.2808   83.3905    9.2988 C.ar    1  UNL1        0.1363
     17 N          64.5088   82.9034   10.6990 N.ar    1  UNL1       -0.1658
     18 C          63.3453   83.3409   13.0654 C.3     1  UNL1        0.2122
     19 O          61.5828   84.7683   14.3327 O.2     1  UNL1       -0.2726
     20 C          63.0097   84.5007   13.9554 C.2     1  UNL1        0.2510
     21 N          64.1010   85.3929   14.4682 N.am    1  UNL1       -0.2805
     22 H          65.0375   85.2173   14.2206 H       1  UNL1        0.1550
     23 C          63.7654   86.5527   15.3583 C.ar    1  UNL1        0.0804
     24 C          63.2572   86.3089   16.7483 C.ar    1  UNL1        0.0171
     25 C          62.9216   87.4688   17.6384 C.ar    1  UNL1        0.0037
     26 C          63.0943   88.8724   17.1384 C.ar    1  UNL1        0.0321
     27 C          63.6025   89.1163   15.7483 C.ar    1  UNL1        0.1686
     28 F          63.7752   90.5198   15.2483 F       1  UNL1       -0.2018
     29 C          63.9381   87.9564   14.8582 C.ar    1  UNL1        0.1807
     30 F          64.4464   88.2002   13.4682 F       1  UNL1       -0.2005
     31 O          61.8440   90.8489   11.7699 O.3     1  UNL1       -0.4754
     32 C          63.1575   91.5650   11.8789 C.3     1  UNL1        0.2068
     33 C          63.8937   91.9747   10.6379 C.3     1  UNL1        0.0646
     34 C          65.3696   92.2362   10.6932 C.3     1  UNL1        0.0760
     35 N          65.8818   93.6460   10.6994 N.3     1  UNL1       -0.2716
     36 C          66.1337   94.4979    9.4908 C.3     1  UNL1        0.0722
     37 C          66.6396   95.8299    9.9597 C.3     1  UNL1        0.0188
     38 C          66.7005   95.8012   11.4582 C.3     1  UNL1        0.0200
     39 C          66.2321   94.4515   11.9154 C.3     1  UNL1        0.0879
     40 C          66.1317   93.9886   13.3386 C.3     1  UNL1        0.1694
     41 O          67.3725   93.8396   14.1682 O.3     1  UNL1       -0.2720
     42 P          67.7546   92.4946   14.7114 P.3     1  UNL1        0.4731
     43 O          67.3312   92.9284   16.0835 O.2     1  UNL1       -0.2275
     44 O          68.1781   92.0609   13.3393 O.3     1  UNL1       -0.3026
     45 O          68.1368   91.1497   15.2545 O.3     1  UNL1       -0.3026
     46 H          68.0363   92.7874   12.7124 H       1  UNL1        0.2220
     47 H          67.9610   91.1243   16.2081 H       1  UNL1        0.2220
@<TRIPOS>BOND
     1    19    20    2
     2    20    18    1
     3    18    13    1
     4    13    14   ar
     5    14    15   ar
     6    15    11    1
     7    11     1    1
     8     1     2   ar
     9     2     3   ar
    10     3     4   ar
    11     4     5   ar
    12     5     6   ar
    13     6     7   ar
    14     7    31    1
    15    31    32    1
    16    32    33    1
    17    33    34    1
    18    34    35    1
    19    35    36    1
    20    36    37    1
    21    37    38    1
    22    38    39    1
    23    39    40    1
    24    40    41    1
    25    41    42    1
    26    42    43    2
    27    42    44    1
    28    42    45    1
    29     7     8   ar
    30     8     9   ar
    31     9    10   ar
    32    15    16   ar
    33    16    17   ar
    34    20    21   am
    35    21    23    1
    36    23    24   ar
    37    24    25   ar
    38    25    26   ar
    39    26    27   ar
    40    27    28    1
    41    27    29   ar
    42    29    30    1
    43    17    13   ar
    44    29    23   ar
    45    10     1   ar
    46    10     5   ar
    47    39    35    1
    48    11    12    1
    49    44    46    1
    50    45    47    1
    51    21    22    1
@<TRIPOS>MOLECULE
*****
 47 51 0 0 0
SMALL
GASTEIGER

@<TRIPOS>ATOM
      1 C          61.2576   86.5389    9.1396 C.ar    1  UNL1        0.1539
      2 N          61.2164   86.2957    7.6601 N.ar    1  UNL1       -0.1328
      3 N          61.9999   85.1641    7.0639 N.ar    1  UNL1       -0.1452
      4 C          62.8247   84.2756    7.9473 C.ar    1  UNL1        0.1223
      5 C          62.8659   84.5187    9.4268 C.ar    1  UNL1        0.0267
      6 C          63.6907   83.6302   10.3102 C.ar    1  UNL1        0.0386
      7 C          63.7319   83.8734   11.7898 C.ar    1  UNL1        0.1386
      8 C          62.9483   85.0051   12.3860 C.ar    1  UNL1        0.0370
      9 C          62.1236   85.8936   11.5026 C.ar    1  UNL1        0.0060
     10 C          62.0824   85.6504   10.0230 C.ar    1  UNL1        0.0352
     11 N          60.4741   87.6705    9.7359 N.pl3   1  UNL1       -0.2941
     12 H          59.4986   87.5913    9.8428 H       1  UNL1        0.1537
     13 N          62.5775   90.4752   11.4018 N.ar    1  UNL1       -0.2387
     14 C          62.1064   89.0525   11.3393 C.ar    1  UNL1        0.1118
     15 C          61.1769   88.9229   10.1692 C.ar    1  UNL1        0.0896
     16 C          61.0734   90.2656    9.5086 C.ar    1  UNL1        0.1363
     17 N          61.9391   91.2250   10.2703 N.ar    1  UNL1       -0.1658
     18 C          63.5213   91.0476   12.4174 C.3     1  UNL1        0.2122
     19 O          65.8140   92.1853   12.8632 O.2     1  UNL1       -0.2726
     20 C          64.6172   91.9754   11.9838 C.2     1  UNL1        0.2510
     21 N          64.5162   92.6934   10.6707 N.am    1  UNL1       -0.2805
     22 H          63.7307   92.5557   10.0934 H       1  UNL1        0.1550
     23 C          65.6121   93.6213   10.2370 C.ar    1  UNL1        0.0804
     24 C          65.3477   95.0935   10.1244 C.ar    1  UNL1        0.0171
     25 C          66.4436   96.0214    9.6908 C.ar    1  UNL1        0.0037
     26 C          67.8039   95.4771    9.3696 C.ar    1  UNL1        0.0321
     27 C          68.0684   94.0048    9.4822 C.ar    1  UNL1        0.1686
     28 F          69.4287   93.4604    9.1611 F       1  UNL1       -0.2018
     29 C          66.9725   93.0769    9.9159 C.ar    1  UNL1        0.1807
     30 F          67.2370   91.6047   10.0284 F       1  UNL1       -0.2005
     31 O          64.5566   82.9849   12.6732 O.3     1  UNL1       -0.4754
     32 C          65.1305   83.5217   13.9508 C.3     1  UNL1        0.2068
     33 C          64.2450   84.2341   14.9298 C.3     1  UNL1        0.0646
     34 C          64.3227   85.7260   15.0637 C.3     1  UNL1        0.0760
     35 N          63.6619   86.4104   16.2234 N.3     1  UNL1       -0.2716
     36 C          63.0873   85.7366   17.4341 C.3     1  UNL1        0.0722
     37 C          62.5298   86.7986   18.3349 C.3     1  UNL1        0.0188
     38 C          62.7599   88.1288   17.6810 C.3     1  UNL1        0.0200
     39 C          63.4595   87.8889   16.3759 C.3     1  UNL1        0.0879
     40 C          63.8825   88.9425   15.3957 C.3     1  UNL1        0.1694
     41 O          63.4005   90.3538   15.5567 O.3     1  UNL1       -0.2720
     42 P          64.3786   91.4510   15.8557 P.3     1  UNL1        0.4731
     43 O          63.3155   92.1933   16.6097 O.2     1  UNL1       -0.2275
     44 O          65.4418   90.7085   15.1016 O.3     1  UNL1       -0.3026
     45 O          65.3568   92.5481   16.1546 O.3     1  UNL1       -0.3026
     46 H          65.0745   89.8796   14.7568 H       1  UNL1        0.2220
     47 H          64.9194   93.2372   16.6788 H       1  UNL1        0.2220
@<TRIPOS>BOND
     1    19    20    2
     2    20    18    1
     3    18    13    1
     4    13    14   ar
     5    14    15   ar
     6    15    11    1
     7    11     1    1
     8     1     2   ar
     9     2     3   ar
    10     3     4   ar
    11     4     5   ar
    12     5     6   ar
    13     6     7   ar
    14     7    31    1
    15    31    32    1
    16    32    33    1
    17    33    34    1
    18    34    35    1
    19    35    36    1
    20    36    37    1
    21    37    38    1
    22    38    39    1
    23    39    40    1
    24    40    41    1
    25    41    42    1
    26    42    43    2
    27    42    44    1
    28    42    45    1
    29     7     8   ar
    30     8     9   ar
    31     9    10   ar
    32    15    16   ar
    33    16    17   ar
    34    20    21   am
    35    21    23    1
    36    23    24   ar
    37    24    25   ar
    38    25    26   ar
    39    26    27   ar
    40    27    28    1
    41    27    29   ar
    42    29    30    1
    43    17    13   ar
    44    29    23   ar
    45    10     1   ar
    46    10     5   ar
    47    39    35    1
    48    11    12    1
    49    44    46    1
    50    45    47    1
    51    21    22    1
