@<TRIPOS>MOLECULE
*****
 32 37 0 0 0
SMALL
GASTEIGER

@<TRIPOS>ATOM
      1 C          63.4574   89.8768   11.5821 C.ar    1  UNL1        0.0028
      2 C          63.7237   90.7658   10.4037 C.ar    1  UNL1        0.0002
      3 C          64.5028   92.0350   10.5827 C.ar    1  UNL1        0.0029
      4 C          65.0155   92.4152   11.9402 C.ar    1  UNL1        0.0349
      5 C          65.7946   93.6845   12.1192 C.ar    1  UNL1        0.1535
      6 N          66.3073   94.0646   13.4766 N.ar    1  UNL1       -0.1329
      7 N          66.0409   93.1755   14.6550 N.ar    1  UNL1       -0.1452
      8 C          65.2618   91.9063   14.4760 C.ar    1  UNL1        0.1222
      9 C          64.7491   91.5261   13.1185 C.ar    1  UNL1        0.0237
     10 C          63.9700   90.2569   12.9395 C.ar    1  UNL1        0.0018
     11 C          61.2589   89.7407    9.5452 C.3     1  UNL1        0.0311
     12 C          61.5791   88.5394   10.3847 C.ar    1  UNL1       -0.0188
     13 C          60.8000   87.2702   10.2056 C.ar    1  UNL1       -0.0040
     14 C          61.1201   86.0689   11.0451 C.ar    1  UNL1        0.0057
     15 C          62.2193   86.1370   12.0635 C.ar    1  UNL1        0.0717
     16 C          62.7579   85.1226   13.0283 C.ar    1  UNL1        0.1704
     17 N          63.8698   85.7649   13.8035 N.ar    1  UNL1       -0.0621
     18 O          64.0184   87.1763   13.3179 O.2     1  UNL1       -0.3522
     19 C          62.9984   87.4063   12.2425 C.ar    1  UNL1        0.1777
     20 C          62.6782   88.6075   11.4030 C.ar    1  UNL1        0.0333
     21 N          62.2702   83.7133   13.1895 N.pl3   1  UNL1       -0.3171
     22 H          61.6257   83.4938   13.9006 H       1  UNL1        0.1482
     23 C          62.7644   82.6385   12.2673 C.3     1  UNL1        0.0706
     24 C          63.5575   82.2229   11.0638 C.3     1  UNL1        0.0212
     25 C          62.8273   81.1926   11.8733 C.3     1  UNL1        0.0212
     26 N          66.0610   94.5735   10.9408 N.pl3   1  UNL1       -0.2884
     27 C          65.3168   95.8676   10.7942 C.3     1  UNL1        0.1242
     28 C          65.5832   96.7566    9.6157 C.3     1  UNL1        0.1636
     29 O          66.5938   96.3516    8.5840 O.3     1  UNL1       -0.3502
     30 C          67.3381   95.0575    8.7306 C.3     1  UNL1        0.1618
     31 C          67.0717   94.1685    9.9090 C.3     1  UNL1        0.1039
     32 C          67.8159   92.8744   10.0556 C.3     1  UNL1        0.0241
@<TRIPOS>BOND
     1    11    12    1
     2    12    13   ar
     3    13    14   ar
     4    14    15   ar
     5    15    16   ar
     6    16    21    1
     7    21    23    1
     8    23    24    1
     9    24    25    1
    10    16    17   ar
    11    17    18   ar
    12    18    19   ar
    13    19    20   ar
    14    20     1    1
    15     1     2   ar
    16     2     3   ar
    17     3     4   ar
    18     4     5   ar
    19     5    26    1
    20    26    27    1
    21    27    28    1
    22    28    29    1
    23    29    30    1
    24    30    31    1
    25    31    32    1
    26     5     6   ar
    27     6     7   ar
    28     7     8   ar
    29     8     9   ar
    30     9    10   ar
    31    20    12   ar
    32    10     1   ar
    33    19    15   ar
    34     9     4   ar
    35    25    23    1
    36    31    26    1
    37    21    22    1
@<TRIPOS>MOLECULE
*****
 32 37 0 0 0
SMALL
GASTEIGER

@<TRIPOS>ATOM
      1 C          63.9185   89.0562   13.4408 C.ar    1  UNL1        0.0028
      2 C          64.2637   87.7796   14.1487 C.ar    1  UNL1        0.0002
      3 C          63.7685   86.4684   13.6145 C.ar    1  UNL1        0.0029
      4 C          62.9282   86.4337   12.3725 C.ar    1  UNL1        0.0349
      5 C          62.4330   85.1223   11.8384 C.ar    1  UNL1        0.1535
      6 N          61.5927   85.0876   10.5964 N.ar    1  UNL1       -0.1329
      7 N          61.2475   86.3643    9.8885 N.ar    1  UNL1       -0.1452
      8 C          61.7427   87.6756   10.4226 C.ar    1  UNL1        0.1222
      9 C          62.5830   87.7103   11.6646 C.ar    1  UNL1        0.0237
     10 C          63.0782   89.0215   12.1987 C.ar    1  UNL1        0.0018
     11 C          63.6802   89.6700   16.3676 C.3     1  UNL1        0.0311
     12 C          64.2946   90.6744   15.4383 C.ar    1  UNL1       -0.0188
     13 C          64.7897   91.9858   15.9724 C.ar    1  UNL1       -0.0040
     14 C          65.4041   92.9902   15.0431 C.ar    1  UNL1        0.0057
     15 C          65.5232   92.6833   13.5796 C.ar    1  UNL1        0.0717
     16 C          66.0790   93.4715   12.4307 C.ar    1  UNL1        0.1704
     17 N          65.9273   92.6474   11.1867 N.ar    1  UNL1       -0.0621
     18 O          65.2778   91.3498   11.5666 O.2     1  UNL1       -0.3522
     19 C          65.0281   91.3720   13.0455 C.ar    1  UNL1        0.1777
     20 C          64.4137   90.3676   13.9749 C.ar    1  UNL1        0.0333
     21 N          66.6808   94.8431   12.5118 N.pl3   1  UNL1       -0.3171
     22 H          67.2876   95.0714   13.2526 H       1  UNL1        0.1482
     23 C          66.3579   95.8669   11.4641 C.3     1  UNL1        0.0706
     24 C          65.4023   96.8557   10.8649 C.3     1  UNL1        0.0212
     25 C          66.7545   96.6513   10.2486 C.3     1  UNL1        0.0212
     26 N          62.7782   83.8458   12.5463 N.pl3   1  UNL1       -0.2884
     27 C          62.2178   83.5691   13.9099 C.3     1  UNL1        0.1242
     28 C          62.5630   82.2924   14.6178 C.3     1  UNL1        0.1636
     29 O          63.4686   81.2925   13.9621 O.3     1  UNL1       -0.3502
     30 C          64.0290   81.5692   12.5985 C.3     1  UNL1        0.1618
     31 C          63.6839   82.8457   11.8906 C.3     1  UNL1        0.1039
     32 C          64.2443   83.1224   10.5270 C.3     1  UNL1        0.0241
@<TRIPOS>BOND
     1    11    12    1
     2    12    13   ar
     3    13    14   ar
     4    14    15   ar
     5    15    16   ar
     6    16    21    1
     7    21    23    1
     8    23    24    1
     9    24    25    1
    10    16    17   ar
    11    17    18   ar
    12    18    19   ar
    13    19    20   ar
    14    20     1    1
    15     1     2   ar
    16     2     3   ar
    17     3     4   ar
    18     4     5   ar
    19     5    26    1
    20    26    27    1
    21    27    28    1
    22    28    29    1
    23    29    30    1
    24    30    31    1
    25    31    32    1
    26     5     6   ar
    27     6     7   ar
    28     7     8   ar
    29     8     9   ar
    30     9    10   ar
    31    20    12   ar
    32    10     1   ar
    33    19    15   ar
    34     9     4   ar
    35    25    23    1
    36    31    26    1
    37    21    22    1
@<TRIPOS>MOLECULE
*****
 32 37 0 0 0
SMALL
GASTEIGER

@<TRIPOS>ATOM
      1 C          63.8221   88.7236   13.8434 C.ar    1  UNL1        0.0028
      2 C          64.1319   87.3448   14.3462 C.ar    1  UNL1        0.0002
      3 C          63.6946   86.1442   13.5607 C.ar    1  UNL1        0.0029
      4 C          62.9474   86.3224   12.2722 C.ar    1  UNL1        0.0349
      5 C          62.5100   85.1217   11.4867 C.ar    1  UNL1        0.1535
      6 N          61.7628   85.2999   10.1982 N.ar    1  UNL1       -0.1329
      7 N          61.4531   86.6788    9.6954 N.ar    1  UNL1       -0.1452
      8 C          61.8904   87.8794   10.4810 C.ar    1  UNL1        0.1222
      9 C          62.6376   87.7012   11.7694 C.ar    1  UNL1        0.0237
     10 C          63.0750   88.9018   12.5550 C.ar    1  UNL1        0.0018
     11 C          62.8315   89.1245   16.6466 C.3     1  UNL1        0.0311
     12 C          63.7642   90.1247   16.0306 C.ar    1  UNL1       -0.0188
     13 C          64.2016   91.3254   16.8162 C.ar    1  UNL1       -0.0040
     14 C          65.1343   92.3257   16.2001 C.ar    1  UNL1        0.0057
     15 C          65.6296   92.1253   14.7985 C.ar    1  UNL1        0.0717
     16 C          66.5489   92.9354   13.9333 C.ar    1  UNL1        0.1704
     17 N          66.6797   92.2355   12.6132 N.ar    1  UNL1       -0.0621
     18 O          65.8412   90.9928   12.6623 O.2     1  UNL1       -0.3522
     19 C          65.1922   90.9246   14.0130 C.ar    1  UNL1        0.1777
     20 C          64.2595   89.9243   14.6290 C.ar    1  UNL1        0.0333
     21 N          67.2196   94.2200   14.3204 N.pl3   1  UNL1       -0.3171
     22 H          66.9122   95.0718   13.9341 H       1  UNL1        0.1482
     23 C          68.3588   94.2069   15.2962 C.3     1  UNL1        0.0706
     24 C          69.3644   93.4465   16.1089 C.3     1  UNL1        0.0212
     25 C          69.3263   94.9446   16.1735 C.3     1  UNL1        0.0212
     26 N          62.8198   83.7429   11.9895 N.pl3   1  UNL1       -0.2884
     27 C          62.2608   83.2801   13.3022 C.3     1  UNL1        0.1242
     28 C          62.5707   81.9012   13.8051 C.3     1  UNL1        0.1636
     29 O          63.4395   80.9852   12.9951 O.3     1  UNL1       -0.3502
     30 C          63.9984   81.4480   11.6823 C.3     1  UNL1        0.1618
     31 C          63.6886   82.8268   11.1795 C.3     1  UNL1        0.1039
     32 C          64.2476   83.2896    9.8667 C.3     1  UNL1        0.0241
@<TRIPOS>BOND
     1    11    12    1
     2    12    13   ar
     3    13    14   ar
     4    14    15   ar
     5    15    16   ar
     6    16    21    1
     7    21    23    1
     8    23    24    1
     9    24    25    1
    10    16    17   ar
    11    17    18   ar
    12    18    19   ar
    13    19    20   ar
    14    20     1    1
    15     1     2   ar
    16     2     3   ar
    17     3     4   ar
    18     4     5   ar
    19     5    26    1
    20    26    27    1
    21    27    28    1
    22    28    29    1
    23    29    30    1
    24    30    31    1
    25    31    32    1
    26     5     6   ar
    27     6     7   ar
    28     7     8   ar
    29     8     9   ar
    30     9    10   ar
    31    20    12   ar
    32    10     1   ar
    33    19    15   ar
    34     9     4   ar
    35    25    23    1
    36    31    26    1
    37    21    22    1
@<TRIPOS>MOLECULE
*****
 32 37 0 0 0
SMALL
GASTEIGER

@<TRIPOS>ATOM
      1 C          63.6635   88.9981   13.5429 C.ar    1  UNL1        0.0028
      2 C          62.8717   89.3183   12.3098 C.ar    1  UNL1        0.0002
      3 C          62.3584   88.2099   11.4393 C.ar    1  UNL1        0.0029
      4 C          62.6367   86.7812   11.8019 C.ar    1  UNL1        0.0349
      5 C          62.1233   85.6728   10.9313 C.ar    1  UNL1        0.1535
      6 N          62.4016   84.2441   11.2940 N.ar    1  UNL1       -0.1329
      7 N          63.1934   83.9239   12.5272 N.ar    1  UNL1       -0.1452
      8 C          63.7068   85.0324   13.3977 C.ar    1  UNL1        0.1222
      9 C          63.4284   86.4610   13.0350 C.ar    1  UNL1        0.0237
     10 C          63.9418   87.5694   13.9055 C.ar    1  UNL1        0.0018
     11 C          62.7611   89.2049   16.3965 C.3     1  UNL1        0.0311
     12 C          63.7257   90.2099   15.8402 C.ar    1  UNL1       -0.0188
     13 C          64.2391   91.3184   16.7107 C.ar    1  UNL1       -0.0040
     14 C          65.2037   92.3234   16.1544 C.ar    1  UNL1        0.0057
     15 C          65.6549   92.2200   14.7276 C.ar    1  UNL1        0.0717
     16 C          66.5909   93.0576   13.9077 C.ar    1  UNL1        0.1704
     17 N          66.6560   92.4669   12.5305 N.ar    1  UNL1       -0.0621
     18 O          65.7602   91.2642   12.4992 O.2     1  UNL1       -0.3522
     19 C          65.1415   91.1116   13.8571 C.ar    1  UNL1        0.1777
     20 C          64.1769   90.1065   14.4134 C.ar    1  UNL1        0.0333
     21 N          67.3318   94.2726   14.3818 N.pl3   1  UNL1       -0.3171
     22 H          67.1020   95.1603   14.0233 H       1  UNL1        0.1482
     23 C          68.4227   94.1352   15.4021 C.3     1  UNL1        0.0706
     24 C          69.2978   93.2699   16.2596 C.3     1  UNL1        0.0212
     25 C          69.4371   94.7625   16.3117 C.3     1  UNL1        0.0212
     26 N          61.3316   85.9930    9.6982 N.pl3   1  UNL1       -0.2884
     27 C          60.0478   86.7608    9.8095 C.3     1  UNL1        0.1242
     28 C          59.2561   87.0810    8.5763 C.3     1  UNL1        0.1636
     29 O          59.7482   86.6334    7.2319 O.3     1  UNL1       -0.3502
     30 C          61.0319   85.8656    7.1206 C.3     1  UNL1        0.1618
     31 C          61.8236   85.5454    8.3537 C.3     1  UNL1        0.1039
     32 C          63.1074   84.7776    8.2424 C.3     1  UNL1        0.0241
@<TRIPOS>BOND
     1    11    12    1
     2    12    13   ar
     3    13    14   ar
     4    14    15   ar
     5    15    16   ar
     6    16    21    1
     7    21    23    1
     8    23    24    1
     9    24    25    1
    10    16    17   ar
    11    17    18   ar
    12    18    19   ar
    13    19    20   ar
    14    20     1    1
    15     1     2   ar
    16     2     3   ar
    17     3     4   ar
    18     4     5   ar
    19     5    26    1
    20    26    27    1
    21    27    28    1
    22    28    29    1
    23    29    30    1
    24    30    31    1
    25    31    32    1
    26     5     6   ar
    27     6     7   ar
    28     7     8   ar
    29     8     9   ar
    30     9    10   ar
    31    20    12   ar
    32    10     1   ar
    33    19    15   ar
    34     9     4   ar
    35    25    23    1
    36    31    26    1
    37    21    22    1
@<TRIPOS>MOLECULE
*****
 32 37 0 0 0
SMALL
GASTEIGER

@<TRIPOS>ATOM
      1 C          63.4443   86.5634   13.6224 C.ar    1  UNL1        0.0028
      2 C          64.3054   87.4806   14.4392 C.ar    1  UNL1        0.0002
      3 C          64.4964   88.9063   14.0140 C.ar    1  UNL1        0.0029
      4 C          63.8264   89.4148   12.7720 C.ar    1  UNL1        0.0349
      5 C          64.0175   90.8406   12.3468 C.ar    1  UNL1        0.1535
      6 N          63.3475   91.3491   11.1049 N.ar    1  UNL1       -0.1329
      7 N          62.4864   90.4318   10.2881 N.ar    1  UNL1       -0.1452
      8 C          62.2953   89.0061   10.7133 C.ar    1  UNL1        0.1222
      9 C          62.9653   88.4976   11.9552 C.ar    1  UNL1        0.0237
     10 C          62.7742   87.0719   12.3804 C.ar    1  UNL1        0.0018
     11 C          63.0971   85.8979   16.5270 C.3     1  UNL1        0.0311
     12 C          63.0796   84.8049   15.4999 C.ar    1  UNL1       -0.0188
     13 C          62.8884   83.3792   15.9251 C.ar    1  UNL1       -0.0040
     14 C          62.8709   82.2862   14.8979 C.ar    1  UNL1        0.0057
     15 C          63.0445   82.6189   13.4456 C.ar    1  UNL1        0.0717
     16 C          63.0711   81.7609   12.2155 C.ar    1  UNL1        0.1704
     17 N          63.2786   82.6563   11.0302 N.ar    1  UNL1       -0.0621
     18 O          63.3803   84.0678   11.5276 O.2     1  UNL1       -0.3522
     19 C          63.2356   84.0446   13.0205 C.ar    1  UNL1        0.1777
     20 C          63.2531   85.1376   14.0476 C.ar    1  UNL1        0.0333
     21 N          62.9172   80.2694   12.1775 N.pl3   1  UNL1       -0.3171
     22 H          62.8897   79.7558   13.0170 H       1  UNL1        0.1482
     23 C          62.8050   79.5602   10.8604 C.3     1  UNL1        0.0706
     24 C          62.7608   78.2856   10.0710 C.3     1  UNL1        0.0212
     25 C          62.6549   79.6068    9.3687 C.3     1  UNL1        0.0212
     26 N          64.8787   91.7578   13.1636 N.pl3   1  UNL1       -0.2884
     27 C          64.9082   91.6263   14.6575 C.3     1  UNL1        0.1242
     28 C          65.7694   92.5435   15.4743 C.3     1  UNL1        0.1636
     29 O          66.6009   93.5923   14.7972 O.3     1  UNL1       -0.3502
     30 C          66.5714   93.7238   13.3032 C.3     1  UNL1        0.1618
     31 C          65.7103   92.8066   12.4865 C.3     1  UNL1        0.1039
     32 C          65.6808   92.9381   10.9925 C.3     1  UNL1        0.0241
@<TRIPOS>BOND
     1    11    12    1
     2    12    13   ar
     3    13    14   ar
     4    14    15   ar
     5    15    16   ar
     6    16    21    1
     7    21    23    1
     8    23    24    1
     9    24    25    1
    10    16    17   ar
    11    17    18   ar
    12    18    19   ar
    13    19    20   ar
    14    20     1    1
    15     1     2   ar
    16     2     3   ar
    17     3     4   ar
    18     4     5   ar
    19     5    26    1
    20    26    27    1
    21    27    28    1
    22    28    29    1
    23    29    30    1
    24    30    31    1
    25    31    32    1
    26     5     6   ar
    27     6     7   ar
    28     7     8   ar
    29     8     9   ar
    30     9    10   ar
    31    20    12   ar
    32    10     1   ar
    33    19    15   ar
    34     9     4   ar
    35    25    23    1
    36    31    26    1
    37    21    22    1
@<TRIPOS>MOLECULE
*****
 32 37 0 0 0
SMALL
GASTEIGER

@<TRIPOS>ATOM
      1 C          63.7465   89.2929   13.1813 C.ar    1  UNL1        0.0028
      2 C          63.7500   87.9045   12.6137 C.ar    1  UNL1        0.0002
      3 C          63.5629   86.7236   13.5194 C.ar    1  UNL1        0.0029
      4 C          63.3724   86.9311   14.9928 C.ar    1  UNL1        0.0349
      5 C          63.1853   85.7501   15.8985 C.ar    1  UNL1        0.1535
      6 N          62.9947   85.9576   17.3718 N.ar    1  UNL1       -0.1329
      7 N          62.9913   87.3461   17.9394 N.ar    1  UNL1       -0.1452
      8 C          63.1784   88.5270   17.0337 C.ar    1  UNL1        0.1222
      9 C          63.3689   88.3195   15.5603 C.ar    1  UNL1        0.0237
     10 C          63.5560   89.5005   14.6546 C.ar    1  UNL1        0.0018
     11 C          62.1389   89.5181   10.6584 C.3     1  UNL1        0.0311
     12 C          63.1298   90.5865   11.0142 C.ar    1  UNL1       -0.0188
     13 C          63.3169   91.7675   10.1084 C.ar    1  UNL1       -0.0040
     14 C          64.3078   92.8360   10.4642 C.ar    1  UNL1        0.0057
     15 C          65.1116   92.7234   11.7257 C.ar    1  UNL1        0.0717
     16 C          66.1549   93.6131   12.3338 C.ar    1  UNL1        0.1704
     17 N          66.6126   92.9821   13.6153 N.ar    1  UNL1       -0.0621
     18 O          65.8522   91.7023   13.7992 O.2     1  UNL1       -0.3522
     19 C          64.9245   91.5424   12.6313 C.ar    1  UNL1        0.1777
     20 C          63.9336   90.4740   12.2756 C.ar    1  UNL1        0.0333
     21 N          66.6531   94.9068   11.7610 N.pl3   1  UNL1       -0.3171
     22 H          66.6614   95.7200   12.3159 H       1  UNL1        0.1482
     23 C          67.1384   94.9616   10.3427 C.3     1  UNL1        0.0706
     24 C          67.7269   94.2786    9.1439 C.3     1  UNL1        0.0212
     25 C          67.3907   95.7393    9.0852 C.3     1  UNL1        0.0212
     26 N          63.1887   84.3617   15.3309 N.pl3   1  UNL1       -0.2884
     27 C          61.9218   83.5591   15.3045 C.3     1  UNL1        0.1242
     28 C          61.9253   82.1705   14.7369 C.3     1  UNL1        0.1636
     29 O          63.1956   81.5847   14.1957 O.3     1  UNL1       -0.3502
     30 C          64.4626   82.3873   14.2221 C.3     1  UNL1        0.1618
     31 C          64.4591   83.7758   14.7897 C.3     1  UNL1        0.1039
     32 C          65.7261   84.5784   14.8161 C.3     1  UNL1        0.0241
@<TRIPOS>BOND
     1    11    12    1
     2    12    13   ar
     3    13    14   ar
     4    14    15   ar
     5    15    16   ar
     6    16    21    1
     7    21    23    1
     8    23    24    1
     9    24    25    1
    10    16    17   ar
    11    17    18   ar
    12    18    19   ar
    13    19    20   ar
    14    20     1    1
    15     1     2   ar
    16     2     3   ar
    17     3     4   ar
    18     4     5   ar
    19     5    26    1
    20    26    27    1
    21    27    28    1
    22    28    29    1
    23    29    30    1
    24    30    31    1
    25    31    32    1
    26     5     6   ar
    27     6     7   ar
    28     7     8   ar
    29     8     9   ar
    30     9    10   ar
    31    20    12   ar
    32    10     1   ar
    33    19    15   ar
    34     9     4   ar
    35    25    23    1
    36    31    26    1
    37    21    22    1
