@<TRIPOS>MOLECULE
*****
 37 40 0 0 0
SMALL
GASTEIGER

@<TRIPOS>ATOM
      1 N          63.1358   88.2785   13.7672 N.pl3   1  UNL1       -0.3319
      2 H          62.3454   88.3232   14.3524 H       1  UNL1        0.1468
      3 C          63.8905   89.5301   13.4294 C.ar    1  UNL1        0.0577
      4 C          64.9955   90.0047   14.3259 C.ar    1  UNL1        0.0462
      5 C          65.7501   91.2562   13.9881 C.ar    1  UNL1        0.1602
      6 F          66.8551   91.7308   14.8846 F       1  UNL1       -0.2027
      7 C          65.3998   92.0332   12.7538 C.ar    1  UNL1        0.1534
      8 C          64.2947   91.5585   11.8572 C.ar    1  UNL1        0.0351
      9 C          63.5401   90.3070   12.1950 C.ar    1  UNL1        0.0722
     10 CL         62.4351   89.8324   11.2985 Cl      1  UNL1       -0.0809
     11 S          66.1544   93.2847   12.4159 S.O2    1  UNL1        0.0772
     12 O          65.7358   93.8900   13.7231 O.2     1  UNL1       -0.1498
     13 O          66.5731   92.6795   11.1089 O.2     1  UNL1       -0.1498
     14 N          66.9091   94.5363   12.0781 N.pl3   1  UNL1       -0.1936
     15 H          67.4967   94.9531   12.7491 H       1  UNL1        0.1758
     16 C          66.7683   95.1528   10.7180 C.ar    1  UNL1        0.1786
     17 N          67.7298   94.9999    9.5768 N.ar    1  UNL1       -0.2214
     18 C          67.1971   95.7831    8.4137 C.ar    1  UNL1        0.1079
     19 C          65.9064   96.4200    8.8359 C.ar    1  UNL1        0.0588
     20 S          65.6414   96.0304   10.2600 S.2     1  UNL1       -0.0497
     21 C          63.5855   86.9590   13.2136 C.3     1  UNL1        0.0874
     22 C          62.7877   86.2867   12.1359 C.3     1  UNL1        0.0252
     23 N          63.8289   81.1033   14.3472 N.3     1  UNL1       -0.3222
     24 C          63.5055   82.3348   13.5542 C.3     1  UNL1        0.0508
     25 C          63.5819   83.6855   14.2020 C.3     1  UNL1        0.0158
     26 C          63.2585   84.9170   13.4090 C.3     1  UNL1        0.0055
     27 C          62.8587   84.7978   11.9682 C.3     1  UNL1        0.0206
     28 C          62.7823   83.4470   11.3204 C.3     1  UNL1        0.0055
     29 C          63.1057   82.2156   12.1134 C.3     1  UNL1        0.0158
     30 H          64.0785   81.3683   15.3000 H       1  UNL1        0.1188
     31 H          64.6129   80.6157   13.9135 H       1  UNL1        0.1188
     32 C          62.4342   85.1956   10.5856 C.ar    1  UNL1       -0.0227
     33 C          61.2249   86.0618   10.3925 C.ar    1  UNL1       -0.0043
     34 C          60.8004   86.4596    9.0099 C.ar    1  UNL1       -0.0003
     35 C          61.5853   85.9913    7.8205 C.ar    1  UNL1       -0.0000
     36 C          62.7946   85.1252    8.0136 C.ar    1  UNL1       -0.0003
     37 C          63.2190   84.7274    9.3962 C.ar    1  UNL1       -0.0043
@<TRIPOS>BOND
     1    24    23    1
     2    24    25    1
     3    25    26    1
     4    26    27    1
     5    27    22    1
     6    22    21    1
     7    21     1    1
     8     1     3    1
     9     3     4   ar
    10     4     5   ar
    11     5     6    1
    12     5     7   ar
    13     7    11    1
    14    11    12    2
    15    11    13    2
    16    11    14    1
    17    14    16    1
    18    16    17   ar
    19    17    18   ar
    20    18    19   ar
    21    19    20   ar
    22     7     8   ar
    23     8     9   ar
    24     9    10    1
    25    27    32    1
    26    32    33   ar
    27    33    34   ar
    28    34    35   ar
    29    35    36   ar
    30    36    37   ar
    31    27    28    1
    32    28    29    1
    33    29    24    1
    34     9     3   ar
    35    37    32   ar
    36    20    16   ar
    37    23    30    1
    38    23    31    1
    39     1     2    1
    40    14    15    1
@<TRIPOS>MOLECULE
*****
 37 40 0 0 0
SMALL
GASTEIGER

@<TRIPOS>ATOM
      1 N          62.6029   89.0178   13.0954 N.pl3   1  UNL1       -0.3319
      2 H          62.5702   88.6945   14.0248 H       1  UNL1        0.1468
      3 C          63.5082   90.1561   12.7287 C.ar    1  UNL1        0.0577
      4 C          63.3158   90.8784   11.4283 C.ar    1  UNL1        0.0462
      5 C          64.2211   92.0168   11.0616 C.ar    1  UNL1        0.1602
      6 F          64.0287   92.7391    9.7610 F       1  UNL1       -0.2027
      7 C          65.3188   92.4329   11.9953 C.ar    1  UNL1        0.1534
      8 C          65.5112   91.7106   13.2958 C.ar    1  UNL1        0.0351
      9 C          64.6059   90.5722   13.6625 C.ar    1  UNL1        0.0722
     10 CL         64.7983   89.8499   14.9630 Cl      1  UNL1       -0.0809
     11 S          66.2241   93.5713   11.6286 S.O2    1  UNL1        0.0772
     12 O          65.8430   94.2819   12.8935 O.2     1  UNL1       -0.1498
     13 O          66.6052   92.8608   10.3637 O.2     1  UNL1       -0.1498
     14 N          67.1294   94.7097   11.2619 N.pl3   1  UNL1       -0.1936
     15 H          67.8938   94.9365   11.8394 H       1  UNL1        0.1758
     16 C          66.8700   95.5026   10.0153 C.ar    1  UNL1        0.1786
     17 N          67.8534   95.7566    8.9114 N.ar    1  UNL1       -0.2214
     18 C          67.1730   96.5916    7.8675 C.ar    1  UNL1        0.1079
     19 C          65.7691   96.8537    8.3262 C.ar    1  UNL1        0.0588
     20 S          65.5819   96.1806    9.6536 S.2     1  UNL1       -0.0497
     21 C          61.7474   88.3718   12.0462 C.3     1  UNL1        0.0874
     22 C          62.3498   87.3862   11.0895 C.3     1  UNL1        0.0252
     23 N          58.7194   88.6355    6.8350 N.3     1  UNL1       -0.3222
     24 C          59.6743   88.0762    7.8476 C.3     1  UNL1        0.0508
     25 C          60.1978   88.9509    8.9479 C.3     1  UNL1        0.0158
     26 C          61.1527   88.3917    9.9606 C.3     1  UNL1        0.0055
     27 C          61.5841   86.9578    9.8728 C.3     1  UNL1        0.0206
     28 C          61.0606   86.0831    8.7725 C.3     1  UNL1        0.0055
     29 C          60.1057   86.6423    7.7598 C.3     1  UNL1        0.0158
     30 H          58.5370   89.6167    7.0452 H       1  UNL1        0.1188
     31 H          57.8443   88.1124    6.8677 H       1  UNL1        0.1188
     32 C          62.2815   85.6726   10.2076 C.ar    1  UNL1       -0.0227
     33 C          62.1548   85.0867   11.5826 C.ar    1  UNL1       -0.0043
     34 C          62.8522   83.8015   11.9174 C.ar    1  UNL1       -0.0003
     35 C          63.6761   83.1023   10.8772 C.ar    1  UNL1       -0.0000
     36 C          63.8028   83.6882    9.5021 C.ar    1  UNL1       -0.0003
     37 C          63.1054   84.9733    9.1674 C.ar    1  UNL1       -0.0043
@<TRIPOS>BOND
     1    24    23    1
     2    24    25    1
     3    25    26    1
     4    26    27    1
     5    27    22    1
     6    22    21    1
     7    21     1    1
     8     1     3    1
     9     3     4   ar
    10     4     5   ar
    11     5     6    1
    12     5     7   ar
    13     7    11    1
    14    11    12    2
    15    11    13    2
    16    11    14    1
    17    14    16    1
    18    16    17   ar
    19    17    18   ar
    20    18    19   ar
    21    19    20   ar
    22     7     8   ar
    23     8     9   ar
    24     9    10    1
    25    27    32    1
    26    32    33   ar
    27    33    34   ar
    28    34    35   ar
    29    35    36   ar
    30    36    37   ar
    31    27    28    1
    32    28    29    1
    33    29    24    1
    34     9     3   ar
    35    37    32   ar
    36    20    16   ar
    37    23    30    1
    38    23    31    1
    39     1     2    1
    40    14    15    1
@<TRIPOS>MOLECULE
*****
 37 40 0 0 0
SMALL
GASTEIGER

@<TRIPOS>ATOM
      1 N          61.3896   86.6332   11.2092 N.pl3   1  UNL1       -0.3319
      2 H          60.4201   86.6642   11.0413 H       1  UNL1        0.1468
      3 C          62.1488   87.9030   11.4565 C.ar    1  UNL1        0.0577
      4 C          63.0863   88.0013   12.6233 C.ar    1  UNL1        0.0462
      5 C          63.8455   89.2711   12.8706 C.ar    1  UNL1        0.1602
      6 F          64.7830   89.3694   14.0375 F       1  UNL1       -0.2027
      7 C          63.6673   90.4427   11.9510 C.ar    1  UNL1        0.1534
      8 C          62.7298   90.3444   10.7841 C.ar    1  UNL1        0.0351
      9 C          61.9706   89.0746   10.5368 C.ar    1  UNL1        0.0722
     10 CL         61.0332   88.9763    9.3700 Cl      1  UNL1       -0.0809
     11 S          64.4265   91.7125   12.1983 S.O2    1  UNL1        0.0772
     12 O          63.9380   91.7285   13.6165 O.2     1  UNL1       -0.1498
     13 O          64.9150   91.6965   10.7802 O.2     1  UNL1       -0.1498
     14 N          65.1857   92.9824   12.4455 N.pl3   1  UNL1       -0.1936
     15 H          64.9542   93.7993   11.9473 H       1  UNL1        0.1758
     16 C          66.2976   93.0074   13.4520 C.ar    1  UNL1        0.1786
     17 N          66.4609   94.0044   14.5608 N.ar    1  UNL1       -0.2214
     18 C          67.7056   93.6531   15.3205 C.ar    1  UNL1        0.1079
     19 C          68.3117   92.4390   14.6814 C.ar    1  UNL1        0.0588
     20 S          67.4414   92.0399   13.5266 S.2     1  UNL1       -0.0497
     21 C          62.1076   85.3163   11.2178 C.3     1  UNL1        0.0874
     22 C          63.0574   84.9870   12.3311 C.3     1  UNL1        0.0252
     23 N          62.7404   79.2932   11.7634 N.3     1  UNL1       -0.3222
     24 C          62.8398   80.7363   12.1603 C.3     1  UNL1        0.0508
     25 C          62.8121   81.8067   11.1098 C.3     1  UNL1        0.0158
     26 C          62.9115   83.2498   11.5067 C.3     1  UNL1        0.0055
     27 C          63.0387   83.6226   12.9541 C.3     1  UNL1        0.0206
     28 C          63.0664   82.5522   14.0045 C.3     1  UNL1        0.0055
     29 C          62.9669   81.1091   13.6076 C.3     1  UNL1        0.0158
     30 H          62.6605   79.2244   10.7488 H       1  UNL1        0.1188
     31 H          61.9170   78.8769   12.1983 H       1  UNL1        0.1188
     32 C          63.1723   84.4692   14.1851 C.ar    1  UNL1       -0.0227
     33 C          64.3510   85.3835   14.3422 C.ar    1  UNL1       -0.0043
     34 C          64.4846   86.2302   15.5733 C.ar    1  UNL1       -0.0003
     35 C          63.4395   86.1623   16.6471 C.ar    1  UNL1       -0.0000
     36 C          62.2609   85.2480   16.4901 C.ar    1  UNL1       -0.0003
     37 C          62.1273   84.4014   15.2590 C.ar    1  UNL1       -0.0043
@<TRIPOS>BOND
     1    24    23    1
     2    24    25    1
     3    25    26    1
     4    26    27    1
     5    27    22    1
     6    22    21    1
     7    21     1    1
     8     1     3    1
     9     3     4   ar
    10     4     5   ar
    11     5     6    1
    12     5     7   ar
    13     7    11    1
    14    11    12    2
    15    11    13    2
    16    11    14    1
    17    14    16    1
    18    16    17   ar
    19    17    18   ar
    20    18    19   ar
    21    19    20   ar
    22     7     8   ar
    23     8     9   ar
    24     9    10    1
    25    27    32    1
    26    32    33   ar
    27    33    34   ar
    28    34    35   ar
    29    35    36   ar
    30    36    37   ar
    31    27    28    1
    32    28    29    1
    33    29    24    1
    34     9     3   ar
    35    37    32   ar
    36    20    16   ar
    37    23    30    1
    38    23    31    1
    39     1     2    1
    40    14    15    1
@<TRIPOS>MOLECULE
*****
 37 40 0 0 0
SMALL
GASTEIGER

@<TRIPOS>ATOM
      1 N          63.4722   89.1642   16.4935 N.pl3   1  UNL1       -0.3319
      2 H          63.4031   89.4208   17.4414 H       1  UNL1        0.1468
      3 C          63.4544   87.7155   16.1054 C.ar    1  UNL1        0.0577
      4 C          63.8904   87.3018   14.7311 C.ar    1  UNL1        0.0462
      5 C          63.8726   85.8530   14.3430 C.ar    1  UNL1        0.1602
      6 F          64.3086   85.4393   12.9686 F       1  UNL1       -0.2027
      7 C          63.4188   84.8178   15.3291 C.ar    1  UNL1        0.1534
      8 C          62.9828   85.2316   16.7035 C.ar    1  UNL1        0.0351
      9 C          63.0006   86.6803   17.0916 C.ar    1  UNL1        0.0722
     10 CL         62.5646   87.0940   18.4659 Cl      1  UNL1       -0.0809
     11 S          63.4010   83.3691   14.9410 S.O2    1  UNL1        0.0772
     12 O          64.8921   83.3098   15.0937 O.2     1  UNL1       -0.1498
     13 O          61.9100   83.4283   14.7883 O.2     1  UNL1       -0.1498
     14 N          63.3833   81.9202   14.5529 N.pl3   1  UNL1       -0.1936
     15 H          63.4198   81.2239   15.2479 H       1  UNL1        0.1758
     16 C          63.3098   81.5324   13.1058 C.ar    1  UNL1        0.1786
     17 N          62.6925   80.2793   12.5591 N.ar    1  UNL1       -0.2214
     18 C          62.8418   80.3019   11.0667 C.ar    1  UNL1        0.1079
     19 C          63.5513   81.5689   10.6910 C.ar    1  UNL1        0.0588
     20 S          63.8405   82.3294   11.9513 S.2     1  UNL1       -0.0497
     21 C          63.5953   90.2222   15.4373 C.3     1  UNL1        0.0874
     22 C          64.9489   90.6198   14.9281 C.3     1  UNL1        0.0252
     23 N          62.9611   91.5437    9.6331 N.3     1  UNL1       -0.3222
     24 C          63.6675   91.4608   10.9537 C.3     1  UNL1        0.0508
     25 C          63.1148   90.5951   12.0469 C.3     1  UNL1        0.0158
     26 C          63.8211   90.5122   13.3676 C.3     1  UNL1        0.0055
     27 C          65.0802   91.2951   13.5951 C.3     1  UNL1        0.0206
     28 C          65.6329   92.1608   12.5019 C.3     1  UNL1        0.0055
     29 C          64.9265   92.2437   11.1813 C.3     1  UNL1        0.0158
     30 H          62.1303   90.9522    9.6541 H       1  UNL1        0.1188
     31 H          63.5862   91.2255    8.8926 H       1  UNL1        0.1188
     32 C          66.2938   91.8434   14.2855 C.ar    1  UNL1       -0.0227
     33 C          66.1589   92.5097   15.6227 C.ar    1  UNL1       -0.0043
     34 C          67.3725   93.0580   16.3131 C.ar    1  UNL1       -0.0003
     35 C          68.7207   92.9401   15.6664 C.ar    1  UNL1       -0.0000
     36 C          68.8555   92.2739   14.3292 C.ar    1  UNL1       -0.0003
     37 C          67.6420   91.7256   13.6389 C.ar    1  UNL1       -0.0043
@<TRIPOS>BOND
     1    24    23    1
     2    24    25    1
     3    25    26    1
     4    26    27    1
     5    27    22    1
     6    22    21    1
     7    21     1    1
     8     1     3    1
     9     3     4   ar
    10     4     5   ar
    11     5     6    1
    12     5     7   ar
    13     7    11    1
    14    11    12    2
    15    11    13    2
    16    11    14    1
    17    14    16    1
    18    16    17   ar
    19    17    18   ar
    20    18    19   ar
    21    19    20   ar
    22     7     8   ar
    23     8     9   ar
    24     9    10    1
    25    27    32    1
    26    32    33   ar
    27    33    34   ar
    28    34    35   ar
    29    35    36   ar
    30    36    37   ar
    31    27    28    1
    32    28    29    1
    33    29    24    1
    34     9     3   ar
    35    37    32   ar
    36    20    16   ar
    37    23    30    1
    38    23    31    1
    39     1     2    1
    40    14    15    1
@<TRIPOS>MOLECULE
*****
 37 40 0 0 0
SMALL
GASTEIGER

@<TRIPOS>ATOM
      1 N          61.4342   86.9460   11.5731 N.pl3   1  UNL1       -0.3319
      2 H          60.4537   86.9671   11.6583 H       1  UNL1        0.1468
      3 C          62.2193   88.2230   11.6256 C.ar    1  UNL1        0.0577
      4 C          63.1932   88.4593   12.7416 C.ar    1  UNL1        0.0462
      5 C          63.9783   89.7364   12.7940 C.ar    1  UNL1        0.1602
      6 F          64.9523   89.9727   13.9101 F       1  UNL1       -0.2027
      7 C          63.7894   90.7772   11.7306 C.ar    1  UNL1        0.1534
      8 C          62.8153   90.5409   10.6145 C.ar    1  UNL1        0.0351
      9 C          62.0303   89.2638   10.5620 C.ar    1  UNL1        0.0722
     10 CL         61.0563   89.0275    9.4460 Cl      1  UNL1       -0.0809
     11 S          64.5744   92.0543   11.7831 S.O2    1  UNL1        0.0772
     12 O          64.4650   92.0601   13.2791 O.2     1  UNL1       -0.1498
     13 O          64.6838   92.0485   10.2871 O.2     1  UNL1       -0.1498
     14 N          65.3594   93.3314   11.8356 N.pl3   1  UNL1       -0.1936
     15 H          65.1483   94.0114   12.5154 H       1  UNL1        0.1758
     16 C          66.4662   93.5723   10.8522 C.ar    1  UNL1        0.1786
     17 N          67.6140   92.6478   10.5727 N.ar    1  UNL1       -0.2214
     18 C          68.4768   93.2840    9.5235 C.ar    1  UNL1        0.1079
     19 C          67.8622   94.6016    9.1545 C.ar    1  UNL1        0.0588
     20 S          66.6196   94.7797    9.9757 S.2     1  UNL1       -0.0497
     21 C          62.1431   85.6367   11.3907 C.3     1  UNL1        0.0874
     22 C          63.1634   85.1899   12.3953 C.3     1  UNL1        0.0252
     23 N          62.7468   79.5188   11.6831 N.3     1  UNL1       -0.3222
     24 C          62.8586   80.9503   12.1172 C.3     1  UNL1        0.0508
     25 C          62.9085   82.0434   11.0913 C.3     1  UNL1        0.0158
     26 C          63.0203   83.4748   11.5254 C.3     1  UNL1        0.0055
     27 C          63.0822   83.8132   12.9854 C.3     1  UNL1        0.0206
     28 C          63.0323   82.7201   14.0113 C.3     1  UNL1        0.0055
     29 C          62.9205   81.2886   13.5772 C.3     1  UNL1        0.0158
     30 H          62.7170   79.4737   10.6646 H       1  UNL1        0.1188
     31 H          61.8932   79.1130   12.0665 H       1  UNL1        0.1188
     32 C          63.1723   84.6297   14.2405 C.ar    1  UNL1       -0.0227
     33 C          62.1510   84.4533   15.3249 C.ar    1  UNL1       -0.0043
     34 C          62.2411   85.2698   16.5800 C.ar    1  UNL1       -0.0003
     35 C          63.3525   86.2625   16.7507 C.ar    1  UNL1       -0.0000
     36 C          64.3738   86.4389   15.6663 C.ar    1  UNL1       -0.0003
     37 C          64.2837   85.6224   14.4113 C.ar    1  UNL1       -0.0043
@<TRIPOS>BOND
     1    24    23    1
     2    24    25    1
     3    25    26    1
     4    26    27    1
     5    27    22    1
     6    22    21    1
     7    21     1    1
     8     1     3    1
     9     3     4   ar
    10     4     5   ar
    11     5     6    1
    12     5     7   ar
    13     7    11    1
    14    11    12    2
    15    11    13    2
    16    11    14    1
    17    14    16    1
    18    16    17   ar
    19    17    18   ar
    20    18    19   ar
    21    19    20   ar
    22     7     8   ar
    23     8     9   ar
    24     9    10    1
    25    27    32    1
    26    32    33   ar
    27    33    34   ar
    28    34    35   ar
    29    35    36   ar
    30    36    37   ar
    31    27    28    1
    32    28    29    1
    33    29    24    1
    34     9     3   ar
    35    37    32   ar
    36    20    16   ar
    37    23    30    1
    38    23    31    1
    39     1     2    1
    40    14    15    1
@<TRIPOS>MOLECULE
*****
 37 40 0 0 0
SMALL
GASTEIGER

@<TRIPOS>ATOM
      1 N          61.0384   88.8246   12.0441 N.pl3   1  UNL1       -0.3319
      2 H          60.2762   89.0114   12.6386 H       1  UNL1        0.1468
      3 C          62.2094   89.7613   12.0091 C.ar    1  UNL1        0.0577
      4 C          63.1333   89.8512   13.1874 C.ar    1  UNL1        0.0462
      5 C          64.3044   90.7879   13.1524 C.ar    1  UNL1        0.1602
      6 F          65.2283   90.8777   14.3308 F       1  UNL1       -0.2027
      7 C          64.5516   91.6347   11.9393 C.ar    1  UNL1        0.1534
      8 C          63.6276   91.5448   10.7610 C.ar    1  UNL1        0.0351
      9 C          62.4566   90.6081   10.7959 C.ar    1  UNL1        0.0722
     10 CL         61.5326   90.5182    9.6177 Cl      1  UNL1       -0.0809
     11 S          65.7226   92.5713   11.9044 S.O2    1  UNL1        0.0772
     12 O          66.0658   92.0910   10.5253 O.2     1  UNL1       -0.1498
     13 O          65.3795   93.0517   13.2833 O.2     1  UNL1       -0.1498
     14 N          66.8937   93.5081   11.8694 N.pl3   1  UNL1       -0.1936
     15 H          67.6642   93.3552   12.4629 H       1  UNL1        0.1758
     16 C          66.8907   94.6776   10.9301 C.ar    1  UNL1        0.1786
     17 N          67.6082   94.7540    9.6150 N.ar    1  UNL1       -0.2214
     18 C          67.3308   96.0996    9.0131 C.ar    1  UNL1        0.1079
     19 C          66.4418   96.8549    9.9562 C.ar    1  UNL1        0.0588
     20 S          66.1699   95.9759   11.1409 S.2     1  UNL1       -0.0497
     21 C          61.0285   87.6034   11.1732 C.3     1  UNL1        0.0874
     22 C          61.6303   86.3226   11.6706 C.3     1  UNL1        0.0252
     23 N          62.7812   84.6858    6.3005 N.3     1  UNL1       -0.3222
     24 C          62.6389   84.9290    7.7738 C.3     1  UNL1        0.0508
     25 C          61.7393   86.0219    8.2701 C.3     1  UNL1        0.0158
     26 C          61.5970   86.2651    9.7433 C.3     1  UNL1        0.0055
     27 C          62.3542   85.4154   10.7203 C.3     1  UNL1        0.0206
     28 C          63.2538   84.3225   10.2240 C.3     1  UNL1        0.0055
     29 C          63.3961   84.0793    8.7508 C.3     1  UNL1        0.0158
     30 H          62.2002   85.3498    5.7886 H       1  UNL1        0.1188
     31 H          62.4835   83.7349    6.0825 H       1  UNL1        0.1188
     32 C          62.8600   84.8807   12.0274 C.ar    1  UNL1       -0.0227
     33 C          63.4896   85.8084   13.0239 C.ar    1  UNL1       -0.0043
     34 C          63.9954   85.2738   14.3310 C.ar    1  UNL1       -0.0003
     35 C          63.8717   83.8115   14.6414 C.ar    1  UNL1       -0.0000
     36 C          63.2421   82.8838   13.6448 C.ar    1  UNL1       -0.0003
     37 C          62.7363   83.4185   12.3379 C.ar    1  UNL1       -0.0043
@<TRIPOS>BOND
     1    24    23    1
     2    24    25    1
     3    25    26    1
     4    26    27    1
     5    27    22    1
     6    22    21    1
     7    21     1    1
     8     1     3    1
     9     3     4   ar
    10     4     5   ar
    11     5     6    1
    12     5     7   ar
    13     7    11    1
    14    11    12    2
    15    11    13    2
    16    11    14    1
    17    14    16    1
    18    16    17   ar
    19    17    18   ar
    20    18    19   ar
    21    19    20   ar
    22     7     8   ar
    23     8     9   ar
    24     9    10    1
    25    27    32    1
    26    32    33   ar
    27    33    34   ar
    28    34    35   ar
    29    35    36   ar
    30    36    37   ar
    31    27    28    1
    32    28    29    1
    33    29    24    1
    34     9     3   ar
    35    37    32   ar
    36    20    16   ar
    37    23    30    1
    38    23    31    1
    39     1     2    1
    40    14    15    1
@<TRIPOS>MOLECULE
*****
 37 40 0 0 0
SMALL
GASTEIGER

@<TRIPOS>ATOM
      1 N          62.6224   88.6131   13.0536 N.pl3   1  UNL1       -0.3319
      2 H          61.7017   88.7217   13.3848 H       1  UNL1        0.1468
      3 C          63.4678   89.8211   12.7783 C.ar    1  UNL1        0.0577
      4 C          63.3080   90.5703   11.4886 C.ar    1  UNL1        0.0462
      5 C          64.1534   91.7783   11.2133 C.ar    1  UNL1        0.1602
      6 F          63.9936   92.5275    9.9236 F       1  UNL1       -0.2027
      7 C          65.1587   92.2372   12.2276 C.ar    1  UNL1        0.1534
      8 C          65.3185   91.4880   13.5173 C.ar    1  UNL1        0.0351
      9 C          64.4731   90.2800   13.7926 C.ar    1  UNL1        0.0722
     10 CL         64.6329   89.5308   15.0823 Cl      1  UNL1       -0.0809
     11 S          66.0041   93.4453   11.9523 S.O2    1  UNL1        0.0772
     12 O          66.2258   92.9699   10.5469 O.2     1  UNL1       -0.1498
     13 O          65.7824   93.9207   13.3575 O.2     1  UNL1       -0.1498
     14 N          66.8496   94.6534   11.6769 N.pl3   1  UNL1       -0.1936
     15 H          67.5110   94.9533   12.3416 H       1  UNL1        0.1758
     16 C          66.6872   95.4045   10.3887 C.ar    1  UNL1        0.1786
     17 N          67.6298   95.3685    9.2223 N.ar    1  UNL1       -0.2214
     18 C          67.0790   96.2652    8.1534 C.ar    1  UNL1        0.1079
     19 C          65.7960   96.8554    8.6591 C.ar    1  UNL1        0.0588
     20 S          65.5540   96.3234   10.0406 S.2     1  UNL1       -0.0497
     21 C          63.1797   87.2395   12.8243 C.3     1  UNL1        0.0874
     22 C          62.7791   86.4612   11.6062 C.3     1  UNL1        0.0252
     23 N          63.6408   81.5781   14.4794 N.3     1  UNL1       -0.3222
     24 C          63.3584   82.7059   13.5316 C.3     1  UNL1        0.0508
     25 C          63.4891   84.1263   13.9957 C.3     1  UNL1        0.0158
     26 C          63.2067   85.2541   13.0479 C.3     1  UNL1        0.0055
     27 C          62.7936   84.9615   11.6360 C.3     1  UNL1        0.0206
     28 C          62.6628   83.5412   11.1718 C.3     1  UNL1        0.0055
     29 C          62.9452   82.4134   12.1196 C.3     1  UNL1        0.0158
     30 H          63.9061   81.9565   15.3887 H       1  UNL1        0.1188
     31 H          64.4033   81.0086   14.1125 H       1  UNL1        0.1188
     32 C          62.3754   85.1898   10.2136 C.ar    1  UNL1       -0.0227
     33 C          63.2032   84.6385    9.0908 C.ar    1  UNL1       -0.0043
     34 C          62.7850   84.8667    7.6685 C.ar    1  UNL1       -0.0003
     35 C          61.5391   85.6463    7.3690 C.ar    1  UNL1       -0.0000
     36 C          60.7112   86.1977    8.4918 C.ar    1  UNL1       -0.0003
     37 C          61.1294   85.9694    9.9141 C.ar    1  UNL1       -0.0043
@<TRIPOS>BOND
     1    24    23    1
     2    24    25    1
     3    25    26    1
     4    26    27    1
     5    27    22    1
     6    22    21    1
     7    21     1    1
     8     1     3    1
     9     3     4   ar
    10     4     5   ar
    11     5     6    1
    12     5     7   ar
    13     7    11    1
    14    11    12    2
    15    11    13    2
    16    11    14    1
    17    14    16    1
    18    16    17   ar
    19    17    18   ar
    20    18    19   ar
    21    19    20   ar
    22     7     8   ar
    23     8     9   ar
    24     9    10    1
    25    27    32    1
    26    32    33   ar
    27    33    34   ar
    28    34    35   ar
    29    35    36   ar
    30    36    37   ar
    31    27    28    1
    32    28    29    1
    33    29    24    1
    34     9     3   ar
    35    37    32   ar
    36    20    16   ar
    37    23    30    1
    38    23    31    1
    39     1     2    1
    40    14    15    1
@<TRIPOS>MOLECULE
*****
 37 40 0 0 0
SMALL
GASTEIGER

@<TRIPOS>ATOM
      1 N          58.9490   89.6354    6.4962 N.pl3   1  UNL1       -0.3319
      2 H          58.1816   89.0360    6.3513 H       1  UNL1        0.1468
      3 C          59.3601   90.6001    5.4237 C.ar    1  UNL1        0.0577
      4 C          60.8077   90.7422    5.0574 C.ar    1  UNL1        0.0462
      5 C          61.2187   91.7069    3.9849 C.ar    1  UNL1        0.1602
      6 F          62.6664   91.8489    3.6185 F       1  UNL1       -0.2027
      7 C          60.1823   92.5296    3.2787 C.ar    1  UNL1        0.1534
      8 C          58.7345   92.3876    3.6450 C.ar    1  UNL1        0.0351
      9 C          58.3235   91.4229    4.7175 C.ar    1  UNL1        0.0722
     10 CL         56.8759   91.2809    5.0839 Cl      1  UNL1       -0.0809
     11 S          60.5933   93.4943    2.2062 S.O2    1  UNL1        0.0772
     12 O          61.0542   92.3497    1.3532 O.2     1  UNL1       -0.1498
     13 O          60.1324   94.6389    3.0591 O.2     1  UNL1       -0.1498
     14 N          61.0044   94.4591    1.1336 N.pl3   1  UNL1       -0.1936
     15 H          60.3273   95.0185    0.6888 H       1  UNL1        0.1758
     16 C          62.4471   94.5714    0.7388 C.ar    1  UNL1        0.1786
     17 N          63.6243   94.4757    1.6636 N.ar    1  UNL1       -0.2214
     18 C          64.8708   94.6443    0.8464 C.ar    1  UNL1        0.1079
     19 C          64.4641   94.8441   -0.5835 C.ar    1  UNL1        0.0588
     20 S          62.9661   94.7991   -0.6499 S.2     1  UNL1       -0.0497
     21 C          59.7071   89.5840    7.7895 C.3     1  UNL1        0.0874
     22 C          59.8952   88.2749    8.4971 C.3     1  UNL1        0.0252
     23 N          62.2252   90.2241   13.3565 N.3     1  UNL1       -0.3222
     24 C          61.7916   89.5325   12.0980 C.3     1  UNL1        0.0508
     25 C          60.6357   90.0696   11.3072 C.3     1  UNL1        0.0158
     26 C          60.2021   89.3780   10.0487 C.3     1  UNL1        0.0055
     27 C          60.9244   88.1493    9.5812 C.3     1  UNL1        0.0206
     28 C          62.0802   87.6122   10.3720 C.3     1  UNL1        0.0055
     29 C          62.5138   88.3038   11.6305 C.3     1  UNL1        0.0158
     30 H          61.6283   91.0345   13.5221 H       1  UNL1        0.1188
     31 H          63.1937   90.5292   13.2604 H       1  UNL1        0.1188
     32 C          61.2892   86.9642    8.7371 C.ar    1  UNL1       -0.0227
     33 C          62.6652   86.3738    8.8279 C.ar    1  UNL1       -0.0043
     34 C          63.0300   85.1887    7.9839 C.ar    1  UNL1       -0.0003
     35 C          62.0189   84.5940    7.0491 C.ar    1  UNL1       -0.0000
     36 C          60.6429   85.1844    6.9582 C.ar    1  UNL1       -0.0003
     37 C          60.2782   86.3695    7.8023 C.ar    1  UNL1       -0.0043
@<TRIPOS>BOND
     1    24    23    1
     2    24    25    1
     3    25    26    1
     4    26    27    1
     5    27    22    1
     6    22    21    1
     7    21     1    1
     8     1     3    1
     9     3     4   ar
    10     4     5   ar
    11     5     6    1
    12     5     7   ar
    13     7    11    1
    14    11    12    2
    15    11    13    2
    16    11    14    1
    17    14    16    1
    18    16    17   ar
    19    17    18   ar
    20    18    19   ar
    21    19    20   ar
    22     7     8   ar
    23     8     9   ar
    24     9    10    1
    25    27    32    1
    26    32    33   ar
    27    33    34   ar
    28    34    35   ar
    29    35    36   ar
    30    36    37   ar
    31    27    28    1
    32    28    29    1
    33    29    24    1
    34     9     3   ar
    35    37    32   ar
    36    20    16   ar
    37    23    30    1
    38    23    31    1
    39     1     2    1
    40    14    15    1
@<TRIPOS>MOLECULE
*****
 37 40 0 0 0
SMALL
GASTEIGER

@<TRIPOS>ATOM
      1 N          62.0980   87.7775   12.2037 N.pl3   1  UNL1       -0.3319
      2 H          61.1917   87.8111   12.5867 H       1  UNL1        0.1468
      3 C          62.9522   89.0104   12.1891 C.ar    1  UNL1        0.0577
      4 C          62.8684   89.9673   11.0370 C.ar    1  UNL1        0.0462
      5 C          63.7226   91.2002   11.0224 C.ar    1  UNL1        0.1602
      6 F          63.6388   92.1571    9.8702 F       1  UNL1       -0.2027
      7 C          64.6606   91.4763   12.1598 C.ar    1  UNL1        0.1534
      8 C          64.7444   90.5194   13.3120 C.ar    1  UNL1        0.0351
      9 C          63.8902   89.2865   13.3266 C.ar    1  UNL1        0.0722
     10 CL         63.9740   88.3296   14.4787 Cl      1  UNL1       -0.0809
     11 S          65.5147   92.7092   12.1452 S.O2    1  UNL1        0.0772
     12 O          65.7977   92.4960   10.6876 O.2     1  UNL1       -0.1498
     13 O          65.2319   92.9224   13.6028 O.2     1  UNL1       -0.1498
     14 N          66.3690   93.9422   12.1306 N.pl3   1  UNL1       -0.1936
     15 H          66.7834   94.2638   12.9637 H       1  UNL1        0.1758
     16 C          66.5916   94.6850   10.8467 C.ar    1  UNL1        0.1786
     17 N          67.7340   94.4802    9.8963 N.ar    1  UNL1       -0.2214
     18 C          67.5595   95.4317    8.7498 C.ar    1  UNL1        0.1079
     19 C          66.3093   96.2245    8.9916 C.ar    1  UNL1        0.0588
     20 S          65.7112   95.7630   10.2875 S.2     1  UNL1       -0.0497
     21 C          62.6246   86.4934   11.6346 C.3     1  UNL1        0.0874
     22 C          63.5974   85.6670   12.4225 C.3     1  UNL1        0.0252
     23 N          63.0323   80.4305   10.1638 N.3     1  UNL1       -0.3222
     24 C          63.1410   81.6861   10.9772 C.3     1  UNL1        0.0508
     25 C          63.4052   82.9981   10.2998 C.3     1  UNL1        0.0158
     26 C          63.5139   84.2537   11.1132 C.3     1  UNL1        0.0055
     27 C          63.3584   84.1973   12.6040 C.3     1  UNL1        0.0206
     28 C          63.0942   82.8854   13.2814 C.3     1  UNL1        0.0055
     29 C          62.9855   81.6298   12.4680 C.3     1  UNL1        0.0158
     30 H          63.1630   80.6524    9.1768 H       1  UNL1        0.1188
     31 H          62.1103   80.0160   10.2999 H       1  UNL1        0.1188
     32 C          63.2858   84.6514   14.0319 C.ar    1  UNL1       -0.0227
     33 C          61.9957   84.5415   14.7892 C.ar    1  UNL1       -0.0043
     34 C          61.9232   84.9956   16.2170 C.ar    1  UNL1       -0.0003
     35 C          63.1409   85.5595   16.8874 C.ar    1  UNL1       -0.0000
     36 C          64.4310   85.6694   16.1301 C.ar    1  UNL1       -0.0003
     37 C          64.5034   85.2153   14.7023 C.ar    1  UNL1       -0.0043
@<TRIPOS>BOND
     1    24    23    1
     2    24    25    1
     3    25    26    1
     4    26    27    1
     5    27    22    1
     6    22    21    1
     7    21     1    1
     8     1     3    1
     9     3     4   ar
    10     4     5   ar
    11     5     6    1
    12     5     7   ar
    13     7    11    1
    14    11    12    2
    15    11    13    2
    16    11    14    1
    17    14    16    1
    18    16    17   ar
    19    17    18   ar
    20    18    19   ar
    21    19    20   ar
    22     7     8   ar
    23     8     9   ar
    24     9    10    1
    25    27    32    1
    26    32    33   ar
    27    33    34   ar
    28    34    35   ar
    29    35    36   ar
    30    36    37   ar
    31    27    28    1
    32    28    29    1
    33    29    24    1
    34     9     3   ar
    35    37    32   ar
    36    20    16   ar
    37    23    30    1
    38    23    31    1
    39     1     2    1
    40    14    15    1
