@<TRIPOS>MOLECULE
*****
 45 50 0 0 0
SMALL
GASTEIGER

@<TRIPOS>ATOM
      1 C          59.3956   89.4018    6.7690 C.ar    1  UNL1        0.1348
      2 C          59.0600   87.9414    6.8365 C.ar    1  UNL1        0.0346
      3 C          59.6438   87.0872    7.9225 C.ar    1  UNL1        0.0065
      4 C          60.5632   87.6933    8.9410 C.ar    1  UNL1        0.0432
      5 C          60.8987   89.1537    8.8735 C.ar    1  UNL1        0.1256
      6 N          60.3149   90.0080    7.7875 N.ar    1  UNL1       -0.2222
      7 C          61.1469   86.8391   10.0270 C.ar    1  UNL1        0.0850
      8 C          60.8651   86.9645   11.4950 C.ar    1  UNL1        0.0991
      9 N          61.6591   85.9124   12.2110 N.ar    1  UNL1       -0.2265
     10 C          62.4316   85.1366   11.1856 C.ar    1  UNL1        0.1474
     11 C          63.3823   83.9828   11.3065 C.ar    1  UNL1        0.0332
     12 C          64.0165   83.4016   10.0777 C.ar    1  UNL1       -0.0174
     13 C          64.9672   82.2477   10.1986 C.3     1  UNL1        0.0312
     14 C          63.7000   83.9743    8.7279 C.ar    1  UNL1        0.0149
     15 C          62.7493   85.1282    8.6069 C.ar    1  UNL1        0.0811
     16 N          62.1150   85.7094    9.8358 N.ar    1  UNL1       -0.2888
     17 C          59.9501   87.9663   12.1346 C.ar    1  UNL1        0.0219
     18 C          59.2529   87.6317   13.4200 C.ar    1  UNL1        0.0222
     19 C          58.3378   88.6334   14.0597 C.ar    1  UNL1        0.0985
     20 N          58.1199   89.9697   13.4141 N.ar    1  UNL1       -0.2481
     21 C          58.8170   90.3042   12.1287 C.ar    1  UNL1        0.0594
     22 C          58.5990   91.6405   11.4831 C.3     1  UNL1        0.0521
     23 C          59.7321   89.3025   11.4891 C.ar    1  UNL1        0.0163
     24 C          59.6983   91.1685    4.8883 C.2     1  UNL1        0.2414
     25 O          61.1686   91.2268    5.1796 O.2     1  UNL1       -0.2733
     26 N          58.8118   90.2561    5.6829 N.am    1  UNL1       -0.2682
     27 H          57.8468   90.2179    5.4917 H       1  UNL1        0.1563
     28 C          59.1145   92.0228    3.8022 C.3     1  UNL1        0.1319
     29 C          60.0192   92.7715    2.8689 C.3     1  UNL1        0.0270
     30 C          56.7272   91.7719    4.7963 C.3     1  UNL1        0.0862
     31 N          57.6260   92.1284    3.6495 N.3     1  UNL1       -0.2902
     32 H          57.4230   93.0980    3.4067 H       1  UNL1        0.1237
     33 C          61.8180   89.7600    9.8920 C.1     1  UNL1       -0.0404
     34 C          62.7374   90.3662   10.9105 C.1     1  UNL1       -0.0583
     35 C          63.6568   90.9724   11.9290 C.ar    1  UNL1        0.0420
     36 C          64.8656   91.7413   11.4848 C.ar    1  UNL1        0.0083
     37 C          65.7849   92.3475   12.5033 C.ar    1  UNL1        0.0018
     38 C          65.4953   92.1847   13.9660 C.ar    1  UNL1        0.0137
     39 C          66.4147   92.7910   14.9846 C.ar    1  UNL1        0.0594
     40 C          67.6235   93.5599   14.5403 C.3     1  UNL1        0.0521
     41 N          66.1252   92.6282   16.4473 N.ar    1  UNL1       -0.2481
     42 C          64.9163   91.8592   16.8916 C.ar    1  UNL1        0.0984
     43 C          63.9970   91.2530   15.8730 C.ar    1  UNL1        0.0207
     44 C          64.2865   91.4158   14.4103 C.ar    1  UNL1        0.0033
     45 C          63.3672   90.8096   13.3918 C.ar    1  UNL1        0.0083
@<TRIPOS>BOND
     1    30    31    1
     2    31    28    1
     3    28    29    1
     4    28    24    1
     5    24    25    2
     6    24    26   am
     7    26     1    1
     8     1     2   ar
     9     2     3   ar
    10     3     4   ar
    11     4     7    1
    12     7     8   ar
    13     8    17    1
    14    17    18   ar
    15    18    19   ar
    16    19    20   ar
    17    20    21   ar
    18    21    22    1
    19    21    23   ar
    20     8     9   ar
    21     9    10   ar
    22    10    11   ar
    23    11    12   ar
    24    12    13    1
    25    12    14   ar
    26    14    15   ar
    27    15    16   ar
    28     4     5   ar
    29     5    33    1
    30    33    34    3
    31    34    35    1
    32    35    36   ar
    33    36    37   ar
    34    37    38   ar
    35    38    39   ar
    36    39    40    1
    37    39    41   ar
    38    41    42   ar
    39    42    43   ar
    40    43    44   ar
    41    44    45   ar
    42     5     6   ar
    43     6     1   ar
    44    16     7   ar
    45    45    35   ar
    46    23    17   ar
    47    16    10   ar
    48    44    38   ar
    49    31    32    1
    50    26    27    1
@<TRIPOS>MOLECULE
*****
 45 50 0 0 0
SMALL
GASTEIGER

@<TRIPOS>ATOM
      1 C          59.3505   89.3399    6.7544 C.ar    1  UNL1        0.1348
      2 C          58.9847   87.8884    6.8514 C.ar    1  UNL1        0.0346
      3 C          59.5736   87.0375    7.9373 C.ar    1  UNL1        0.0065
      4 C          60.5284   87.6380    8.9261 C.ar    1  UNL1        0.0432
      5 C          60.8942   89.0894    8.8291 C.ar    1  UNL1        0.1256
      6 N          60.3052   89.9404    7.7433 N.ar    1  UNL1       -0.2222
      7 C          61.1173   86.7870   10.0120 C.ar    1  UNL1        0.0850
      8 C          60.8446   86.9187   11.4811 C.ar    1  UNL1        0.0991
      9 N          61.6411   85.8680   12.1964 N.ar    1  UNL1       -0.2265
     10 C          62.4061   85.0870   11.1694 C.ar    1  UNL1        0.1474
     11 C          63.3556   83.9320   11.2891 C.ar    1  UNL1        0.0332
     12 C          63.9814   83.3450   10.0588 C.ar    1  UNL1       -0.0174
     13 C          64.9310   82.1900   10.1785 C.3     1  UNL1        0.0312
     14 C          63.6578   83.9129    8.7087 C.ar    1  UNL1        0.0149
     15 C          62.7082   85.0679    8.5890 C.ar    1  UNL1        0.0811
     16 N          62.0823   85.6550    9.8194 N.ar    1  UNL1       -0.2888
     17 C          59.9350   87.9245   12.1223 C.ar    1  UNL1        0.0219
     18 C          59.2120   87.5805   13.3908 C.ar    1  UNL1        0.0222
     19 C          58.3025   88.5862   14.0321 C.ar    1  UNL1        0.0985
     20 N          58.1159   89.9360   13.4048 N.ar    1  UNL1       -0.2481
     21 C          58.8388   90.2799   12.1364 C.ar    1  UNL1        0.0594
     22 C          58.6522   91.6296   11.5091 C.3     1  UNL1        0.0521
     23 C          59.7484   89.2741   11.4951 C.ar    1  UNL1        0.0163
     24 C          59.6315   91.1519    4.9139 C.2     1  UNL1        0.2414
     25 O          61.0904   91.2621    5.2451 O.2     1  UNL1       -0.2733
     26 N          58.7616   90.1908    5.6686 N.am    1  UNL1       -0.2682
     27 H          57.8041   90.1185    5.4513 H       1  UNL1        0.1563
     28 C          59.0426   92.0029    3.8281 C.3     1  UNL1        0.1319
     29 C          59.9428   92.7532    2.8918 C.3     1  UNL1        0.0270
     30 C          56.6595   91.7779    4.8382 C.3     1  UNL1        0.0862
     31 N          57.5535   92.1035    3.6785 N.3     1  UNL1       -0.2902
     32 H          57.3489   93.0661    3.4103 H       1  UNL1        0.1237
     33 C          61.8489   89.6900    9.8180 C.1     1  UNL1       -0.0404
     34 C          62.8037   90.2905   10.8069 C.1     1  UNL1       -0.0583
     35 C          63.7584   90.8910   11.7957 C.ar    1  UNL1        0.0420
     36 C          64.0459   90.1825   13.0862 C.ar    1  UNL1        0.0083
     37 C          65.0007   90.7830   14.0750 C.ar    1  UNL1        0.0018
     38 C          65.6679   92.0922   13.7733 C.ar    1  UNL1        0.0137
     39 C          66.6227   92.6927   14.7622 C.ar    1  UNL1        0.0594
     40 C          66.9102   91.9842   16.0526 C.3     1  UNL1        0.0521
     41 N          67.2899   94.0019   14.4606 N.ar    1  UNL1       -0.2481
     42 C          67.0024   94.7104   13.1701 C.ar    1  UNL1        0.0984
     43 C          66.0476   94.1099   12.1813 C.ar    1  UNL1        0.0207
     44 C          65.3804   92.8007   12.4829 C.ar    1  UNL1        0.0033
     45 C          64.4257   92.2002   11.4941 C.ar    1  UNL1        0.0083
@<TRIPOS>BOND
     1    30    31    1
     2    31    28    1
     3    28    29    1
     4    28    24    1
     5    24    25    2
     6    24    26   am
     7    26     1    1
     8     1     2   ar
     9     2     3   ar
    10     3     4   ar
    11     4     7    1
    12     7     8   ar
    13     8    17    1
    14    17    18   ar
    15    18    19   ar
    16    19    20   ar
    17    20    21   ar
    18    21    22    1
    19    21    23   ar
    20     8     9   ar
    21     9    10   ar
    22    10    11   ar
    23    11    12   ar
    24    12    13    1
    25    12    14   ar
    26    14    15   ar
    27    15    16   ar
    28     4     5   ar
    29     5    33    1
    30    33    34    3
    31    34    35    1
    32    35    36   ar
    33    36    37   ar
    34    37    38   ar
    35    38    39   ar
    36    39    40    1
    37    39    41   ar
    38    41    42   ar
    39    42    43   ar
    40    43    44   ar
    41    44    45   ar
    42     5     6   ar
    43     6     1   ar
    44    16     7   ar
    45    45    35   ar
    46    23    17   ar
    47    16    10   ar
    48    44    38   ar
    49    31    32    1
    50    26    27    1
