@<TRIPOS>MOLECULE
*****
 37 43 0 0 0
SMALL
GASTEIGER

@<TRIPOS>ATOM
      1 N          60.7438   86.8932   11.7136 N.pl3   1  UNL1       -0.3414
      2 C          61.0802   88.3017   11.3228 C.ar    1  UNL1        0.1432
      3 N          60.1371   89.0862   10.4596 N.ar    1  UNL1       -0.2265
      4 C          60.4735   90.4947   10.0687 C.ar    1  UNL1        0.1193
      5 C          61.7532   91.1188   10.5411 C.ar    1  UNL1        0.1020
      6 N          62.6963   90.3344   11.4043 N.ar    1  UNL1       -0.2885
      7 C          62.3598   88.9258   11.7951 C.ar    1  UNL1        0.1141
      8 C          63.4763   88.4025   12.6493 C.ar    1  UNL1        0.1014
      9 N          64.5028   89.4876   12.7864 N.ar    1  UNL1       -0.2305
     10 C          64.0208   90.6815   12.0169 C.ar    1  UNL1        0.1239
     11 H          59.9039   86.4836   11.4036 H       1  UNL1        0.1438
     12 H          61.3628   86.3783   12.2802 H       1  UNL1        0.1438
     13 C          63.5528   87.0342   13.2593 C.ar    1  UNL1        0.0207
     14 C          63.8592   86.8801   14.7195 C.ar    1  UNL1        0.0016
     15 C          63.9357   85.5119   15.3295 C.ar    1  UNL1        0.0015
     16 C          63.7058   84.2977   14.4791 C.ar    1  UNL1        0.0177
     17 C          63.7823   82.9294   15.0891 C.ar    1  UNL1        0.0030
     18 C          63.5525   81.7153   14.2388 C.ar    1  UNL1        0.0191
     19 C          63.2462   81.8695   12.7785 C.ar    1  UNL1        0.0812
     20 N          63.1697   83.2377   12.1686 N.ar    1  UNL1       -0.2454
     21 C          63.3995   84.4518   13.0189 C.ar    1  UNL1        0.0813
     22 C          63.3230   85.8200   12.4090 C.ar    1  UNL1        0.0206
     23 C          63.0163   80.6553   11.9281 C.ar    1  UNL1        0.0176
     24 C          63.1411   80.7500   10.4363 C.ar    1  UNL1        0.0015
     25 C          62.9112   79.5358    9.5860 C.ar    1  UNL1        0.0000
     26 C          62.5567   78.2271   10.2275 C.ar    1  UNL1        0.0000
     27 C          62.4320   78.1325   11.7193 C.ar    1  UNL1        0.0000
     28 C          62.6618   79.3466   12.5696 C.ar    1  UNL1        0.0015
     29 C          64.7374   91.9926   11.8835 C.3     1  UNL1        0.0573
     30 C          65.5324   92.8657   12.8084 C.3     1  UNL1        0.0089
     31 C          65.7507   93.8466   11.6948 C.3     1  UNL1        0.0168
     32 C          64.9557   92.9734   10.7699 C.3     1  UNL1        0.0089
     33 C          66.4673   95.1576   11.5614 C.3     1  UNL1        0.0721
     34 N          66.8126   95.6886   10.2017 N.3     1  UNL1       -0.2726
     35 C          67.7497   95.2721    9.1069 C.3     1  UNL1        0.0735
     36 C          67.3010   96.4396    8.2787 C.3     1  UNL1        0.0346
     37 C          66.3640   96.8560    9.3735 C.3     1  UNL1        0.0735
@<TRIPOS>BOND
     1     1     2    1
     2     2     3   ar
     3     3     4   ar
     4     4     5   ar
     5     5     6   ar
     6     6     7   ar
     7     7     8   ar
     8     8    13    1
     9    13    14   ar
    10    14    15   ar
    11    15    16   ar
    12    16    17   ar
    13    17    18   ar
    14    18    19   ar
    15    19    23    1
    16    23    24   ar
    17    24    25   ar
    18    25    26   ar
    19    26    27   ar
    20    27    28   ar
    21    19    20   ar
    22    20    21   ar
    23    21    22   ar
    24     8     9   ar
    25     9    10   ar
    26    29    10    1
    27    29    30    1
    28    30    31    1
    29    31    33    1
    30    33    34    1
    31    34    35    1
    32    35    36    1
    33    36    37    1
    34    31    32    1
    35     7     2   ar
    36    22    13   ar
    37    32    29    1
    38    10     6   ar
    39    37    34    1
    40    21    16   ar
    41    28    23   ar
    42     1    11    1
    43     1    12    1
@<TRIPOS>MOLECULE
*****
 37 43 0 0 0
SMALL
GASTEIGER

@<TRIPOS>ATOM
      1 N          62.4234   90.0333   10.1499 N.pl3   1  UNL1       -0.3414
      2 C          61.9894   88.5982   10.1973 C.ar    1  UNL1        0.1432
      3 N          61.0861   88.0523    9.1314 N.ar    1  UNL1       -0.2265
      4 C          60.6521   86.6172    9.1787 C.ar    1  UNL1        0.1193
      5 C          61.1216   85.7281   10.2920 C.ar    1  UNL1        0.1020
      6 N          62.0248   86.2740   11.3577 N.ar    1  UNL1       -0.2885
      7 C          62.4588   87.7091   11.3104 C.ar    1  UNL1        0.1141
      8 C          63.3466   87.9641   12.4923 C.ar    1  UNL1        0.1014
      9 N          63.4613   86.6867   13.2700 N.ar    1  UNL1       -0.2305
     10 C          62.6445   85.6422   12.5689 C.ar    1  UNL1        0.1239
     11 H          62.1153   90.6169    9.4193 H       1  UNL1        0.1438
     12 H          63.0162   90.3916   10.8495 H       1  UNL1        0.1438
     13 C          64.0042   89.2678   12.8360 C.ar    1  UNL1        0.0207
     14 C          64.3609   89.5754   14.2601 C.ar    1  UNL1        0.0016
     15 C          65.0185   90.8790   14.6037 C.ar    1  UNL1        0.0015
     16 C          65.3193   91.8751   13.5233 C.ar    1  UNL1        0.0177
     17 C          65.9769   93.1787   13.8670 C.ar    1  UNL1        0.0030
     18 C          66.2778   94.1748   12.7865 C.ar    1  UNL1        0.0191
     19 C          65.9210   93.8672   11.3624 C.ar    1  UNL1        0.0812
     20 N          65.2634   92.5635   11.0187 N.ar    1  UNL1       -0.2454
     21 C          64.9626   91.5675   12.0992 C.ar    1  UNL1        0.0813
     22 C          64.3050   90.2639   11.7555 C.ar    1  UNL1        0.0206
     23 C          66.2219   94.8632   10.2819 C.ar    1  UNL1        0.0176
     24 C          65.1789   95.8587    9.8680 C.ar    1  UNL1        0.0015
     25 C          65.4797   96.8547    8.7875 C.ar    1  UNL1        0.0000
     26 C          66.8235   96.8553    8.1210 C.ar    1  UNL1        0.0000
     27 C          67.8665   95.8599    8.5350 C.ar    1  UNL1        0.0000
     28 C          67.5656   94.8638    9.6154 C.ar    1  UNL1        0.0015
     29 C          62.4767   84.2161   13.0027 C.3     1  UNL1        0.0573
     30 C          62.4568   82.8897   12.3024 C.3     1  UNL1        0.0089
     31 C          62.2394   82.1993   13.6162 C.3     1  UNL1        0.0168
     32 C          62.2592   83.5257   14.3165 C.3     1  UNL1        0.0089
     33 C          62.0716   80.7732   14.0500 C.3     1  UNL1        0.0721
     34 N          60.6973   80.1883   14.1888 N.3     1  UNL1       -0.2726
     35 C          60.1472   78.8054   14.3759 C.3     1  UNL1        0.0735
     36 C          58.7538   79.3609   14.3851 C.3     1  UNL1        0.0346
     37 C          59.3041   80.7438   14.1979 C.3     1  UNL1        0.0735
@<TRIPOS>BOND
     1     1     2    1
     2     2     3   ar
     3     3     4   ar
     4     4     5   ar
     5     5     6   ar
     6     6     7   ar
     7     7     8   ar
     8     8    13    1
     9    13    14   ar
    10    14    15   ar
    11    15    16   ar
    12    16    17   ar
    13    17    18   ar
    14    18    19   ar
    15    19    23    1
    16    23    24   ar
    17    24    25   ar
    18    25    26   ar
    19    26    27   ar
    20    27    28   ar
    21    19    20   ar
    22    20    21   ar
    23    21    22   ar
    24     8     9   ar
    25     9    10   ar
    26    29    10    1
    27    29    30    1
    28    30    31    1
    29    31    33    1
    30    33    34    1
    31    34    35    1
    32    35    36    1
    33    36    37    1
    34    31    32    1
    35     7     2   ar
    36    22    13   ar
    37    32    29    1
    38    10     6   ar
    39    37    34    1
    40    21    16   ar
    41    28    23   ar
    42     1    11    1
    43     1    12    1
@<TRIPOS>MOLECULE
*****
 37 43 0 0 0
SMALL
GASTEIGER

@<TRIPOS>ATOM
      1 N          62.5492   84.6319   12.2931 N.pl3   1  UNL1       -0.3414
      2 C          63.3624   85.3919   13.2986 C.ar    1  UNL1        0.1432
      3 N          64.0671   84.6590   14.4014 N.ar    1  UNL1       -0.2265
      4 C          64.8803   85.4190   15.4070 C.ar    1  UNL1        0.1193
      5 C          64.9888   86.9120   15.3096 C.ar    1  UNL1        0.1020
      6 N          64.2841   87.6448   14.2068 N.ar    1  UNL1       -0.2885
      7 C          63.4709   86.8848   13.2013 C.ar    1  UNL1        0.1141
      8 C          62.8922   87.8721   12.2315 C.ar    1  UNL1        0.1014
      9 N          63.3478   89.2423   12.6377 N.ar    1  UNL1       -0.2305
     10 C          64.2080   89.1019   13.8585 C.ar    1  UNL1        0.1239
     11 H          62.4780   83.6521   12.3569 H       1  UNL1        0.1438
     12 H          62.0867   85.1130   11.5693 H       1  UNL1        0.1438
     13 C          62.0124   87.5463   11.0611 C.ar    1  UNL1        0.0207
     14 C          61.5703   86.1325   10.8257 C.ar    1  UNL1        0.0016
     15 C          60.6906   85.8068    9.6553 C.ar    1  UNL1        0.0015
     16 C          60.2529   86.8949    8.7203 C.ar    1  UNL1        0.0177
     17 C          59.3731   86.5692    7.5498 C.ar    1  UNL1        0.0030
     18 C          58.9354   87.6574    6.6148 C.ar    1  UNL1        0.0191
     19 C          59.3776   89.0713    6.8502 C.ar    1  UNL1        0.0812
     20 N          60.2573   89.3970    8.0206 N.ar    1  UNL1       -0.2454
     21 C          60.6950   88.3088    8.9556 C.ar    1  UNL1        0.0813
     22 C          61.5748   88.6345   10.1260 C.ar    1  UNL1        0.0206
     23 C          58.9399   90.1595    5.9151 C.ar    1  UNL1        0.0176
     24 C          59.9628   90.9595    5.1642 C.ar    1  UNL1        0.0015
     25 C          59.5251   92.0477    4.2292 C.ar    1  UNL1        0.0000
     26 C          58.0646   92.3358    4.0450 C.ar    1  UNL1        0.0000
     27 C          57.0418   91.5358    4.7959 C.ar    1  UNL1        0.0000
     28 C          57.4795   90.4477    5.7309 C.ar    1  UNL1        0.0015
     29 C          64.8751   90.2218   14.6006 C.3     1  UNL1        0.0573
     30 C          64.4595   91.1715   15.6848 C.3     1  UNL1        0.0089
     31 C          65.8184   91.8056   15.6502 C.3     1  UNL1        0.0168
     32 C          66.2340   90.8559   14.5661 C.3     1  UNL1        0.0089
     33 C          66.4855   92.9256   16.3924 C.3     1  UNL1        0.0721
     34 N          67.9234   93.2542   16.1199 N.3     1  UNL1       -0.2726
     35 C          68.7343   94.5156   16.0816 C.3     1  UNL1        0.0735
     36 C          69.9571   93.7190   15.7346 C.3     1  UNL1        0.0346
     37 C          69.1461   92.4577   15.7729 C.3     1  UNL1        0.0735
@<TRIPOS>BOND
     1     1     2    1
     2     2     3   ar
     3     3     4   ar
     4     4     5   ar
     5     5     6   ar
     6     6     7   ar
     7     7     8   ar
     8     8    13    1
     9    13    14   ar
    10    14    15   ar
    11    15    16   ar
    12    16    17   ar
    13    17    18   ar
    14    18    19   ar
    15    19    23    1
    16    23    24   ar
    17    24    25   ar
    18    25    26   ar
    19    26    27   ar
    20    27    28   ar
    21    19    20   ar
    22    20    21   ar
    23    21    22   ar
    24     8     9   ar
    25     9    10   ar
    26    29    10    1
    27    29    30    1
    28    30    31    1
    29    31    33    1
    30    33    34    1
    31    34    35    1
    32    35    36    1
    33    36    37    1
    34    31    32    1
    35     7     2   ar
    36    22    13   ar
    37    32    29    1
    38    10     6   ar
    39    37    34    1
    40    21    16   ar
    41    28    23   ar
    42     1    11    1
    43     1    12    1
@<TRIPOS>MOLECULE
*****
 37 43 0 0 0
SMALL
GASTEIGER

@<TRIPOS>ATOM
      1 N          63.6167   89.9703   17.2852 N.pl3   1  UNL1       -0.3414
      2 C          63.2554   88.5600   16.9243 C.ar    1  UNL1        0.1432
      3 N          62.5420   87.6910   17.9173 N.ar    1  UNL1       -0.2265
      4 C          62.1807   86.2806   17.5564 C.ar    1  UNL1        0.1193
      5 C          62.5328   85.7393   16.2024 C.ar    1  UNL1        0.1020
      6 N          63.2461   86.6082   15.2096 N.ar    1  UNL1       -0.2885
      7 C          63.6074   88.0186   15.5705 C.ar    1  UNL1        0.1141
      8 C          64.3041   88.6343   14.3934 C.ar    1  UNL1        0.1014
      9 N          64.3734   87.6045   13.3050 N.ar    1  UNL1       -0.2305
     10 C          63.7195   86.3523   13.8094 C.ar    1  UNL1        0.1239
     11 H          63.3856   90.3257   18.1738 H       1  UNL1        0.1438
     12 H          64.0849   90.5407   16.6335 H       1  UNL1        0.1438
     13 C          64.8379   90.0342   14.3180 C.ar    1  UNL1        0.0207
     14 C          65.3199   90.7210   15.5613 C.ar    1  UNL1        0.0016
     15 C          65.8536   92.1208   15.4859 C.ar    1  UNL1        0.0015
     16 C          65.9052   92.8338   14.1671 C.ar    1  UNL1        0.0177
     17 C          66.4390   94.2336   14.0917 C.ar    1  UNL1        0.0030
     18 C          66.4906   94.9466   12.7730 C.ar    1  UNL1        0.0191
     19 C          66.0085   94.2596   11.5297 C.ar    1  UNL1        0.0812
     20 N          65.4748   92.8599   11.6051 N.ar    1  UNL1       -0.2454
     21 C          65.4232   92.1469   12.9238 C.ar    1  UNL1        0.0813
     22 C          64.8895   90.7471   12.9993 C.ar    1  UNL1        0.0206
     23 C          66.0601   94.9726   10.2109 C.ar    1  UNL1        0.0176
     24 C          67.0153   94.5158    9.1483 C.ar    1  UNL1        0.0015
     25 C          67.0669   95.2287    7.8296 C.ar    1  UNL1        0.0000
     26 C          66.1634   96.3985    7.5735 C.ar    1  UNL1        0.0000
     27 C          65.2084   96.8552    8.6361 C.ar    1  UNL1        0.0000
     28 C          65.1567   96.1423    9.9548 C.ar    1  UNL1        0.0015
     29 C          63.5660   85.0694   13.0474 C.3     1  UNL1        0.0573
     30 C          62.6461   84.5802   11.9683 C.3     1  UNL1        0.0089
     31 C          63.3489   83.2551   11.9698 C.3     1  UNL1        0.0168
     32 C          64.2688   83.7442   13.0489 C.3     1  UNL1        0.0089
     33 C          63.1954   81.9722   11.2078 C.3     1  UNL1        0.0721
     34 N          62.8162   80.7125   11.9286 N.3     1  UNL1       -0.2726
     35 C          62.4028   80.3763   13.3308 C.3     1  UNL1        0.0735
     36 C          62.2800   78.9311   12.9480 C.3     1  UNL1        0.0346
     37 C          62.6933   79.2675   11.5458 C.3     1  UNL1        0.0735
@<TRIPOS>BOND
     1     1     2    1
     2     2     3   ar
     3     3     4   ar
     4     4     5   ar
     5     5     6   ar
     6     6     7   ar
     7     7     8   ar
     8     8    13    1
     9    13    14   ar
    10    14    15   ar
    11    15    16   ar
    12    16    17   ar
    13    17    18   ar
    14    18    19   ar
    15    19    23    1
    16    23    24   ar
    17    24    25   ar
    18    25    26   ar
    19    26    27   ar
    20    27    28   ar
    21    19    20   ar
    22    20    21   ar
    23    21    22   ar
    24     8     9   ar
    25     9    10   ar
    26    29    10    1
    27    29    30    1
    28    30    31    1
    29    31    33    1
    30    33    34    1
    31    34    35    1
    32    35    36    1
    33    36    37    1
    34    31    32    1
    35     7     2   ar
    36    22    13   ar
    37    32    29    1
    38    10     6   ar
    39    37    34    1
    40    21    16   ar
    41    28    23   ar
    42     1    11    1
    43     1    12    1
@<TRIPOS>MOLECULE
*****
 37 43 0 0 0
SMALL
GASTEIGER

@<TRIPOS>ATOM
      1 N          61.5130   86.3322   11.1582 N.pl3   1  UNL1       -0.3414
      2 C          60.9837   86.5675    9.7746 C.ar    1  UNL1        0.1432
      3 N          60.6933   85.4031    8.8746 N.ar    1  UNL1       -0.2265
      4 C          60.1640   85.6384    7.4909 C.ar    1  UNL1        0.1193
      5 C          59.9250   87.0381    7.0074 C.ar    1  UNL1        0.1020
      6 N          60.2154   88.2024    7.9073 N.ar    1  UNL1       -0.2885
      7 C          60.7447   87.9671    9.2910 C.ar    1  UNL1        0.1141
      8 C          60.9365   89.3022    9.9472 C.ar    1  UNL1        0.1014
      9 N          60.5256   90.3627    8.9691 N.ar    1  UNL1       -0.2305
     10 C          60.0800   89.6830    7.7084 C.ar    1  UNL1        0.1239
     11 H          61.6699   85.4136   11.4756 H       1  UNL1        0.1438
     12 H          61.7036   87.0964   11.7489 H       1  UNL1        0.1438
     13 C          61.4491   89.5359   11.3374 C.ar    1  UNL1        0.0207
     14 C          60.6086   89.1560   12.5204 C.ar    1  UNL1        0.0016
     15 C          61.1213   89.3897   13.9105 C.ar    1  UNL1        0.0015
     16 C          62.4743   90.0031   14.1178 C.ar    1  UNL1        0.0177
     17 C          62.9869   90.2367   15.5080 C.ar    1  UNL1        0.0030
     18 C          64.3399   90.8502   15.7152 C.ar    1  UNL1        0.0191
     19 C          65.1804   91.2300   14.5322 C.ar    1  UNL1        0.0812
     20 N          64.6678   90.9964   13.1421 N.ar    1  UNL1       -0.2454
     21 C          63.3147   90.3830   12.9348 C.ar    1  UNL1        0.0813
     22 C          62.8021   90.1493   11.5447 C.ar    1  UNL1        0.0206
     23 C          66.5334   91.8435   14.7394 C.ar    1  UNL1        0.0176
     24 C          66.7901   92.7058   15.9398 C.ar    1  UNL1        0.0015
     25 C          68.1431   93.3193   16.1470 C.ar    1  UNL1        0.0000
     26 C          69.2395   93.0704   15.1539 C.ar    1  UNL1        0.0000
     27 C          68.9828   92.2082   13.9537 C.ar    1  UNL1        0.0000
     28 C          67.6298   91.5947   13.7465 C.ar    1  UNL1        0.0015
     29 C          59.5857   90.3642    6.4668 C.3     1  UNL1        0.0573
     30 C          60.2317   90.9124    5.2290 C.3     1  UNL1        0.0089
     31 C          58.8867   91.3277    4.7109 C.3     1  UNL1        0.0168
     32 C          58.2407   90.7795    5.9487 C.3     1  UNL1        0.0089
     33 C          58.3924   92.0089    3.4693 C.3     1  UNL1        0.0721
     34 N          59.3478   92.7753    2.6034 N.3     1  UNL1       -0.2726
     35 C          60.6681   93.4529    2.8224 C.3     1  UNL1        0.0735
     36 C          60.6991   93.8592    1.3788 C.3     1  UNL1        0.0346
     37 C          59.3789   93.1816    1.1598 C.3     1  UNL1        0.0735
@<TRIPOS>BOND
     1     1     2    1
     2     2     3   ar
     3     3     4   ar
     4     4     5   ar
     5     5     6   ar
     6     6     7   ar
     7     7     8   ar
     8     8    13    1
     9    13    14   ar
    10    14    15   ar
    11    15    16   ar
    12    16    17   ar
    13    17    18   ar
    14    18    19   ar
    15    19    23    1
    16    23    24   ar
    17    24    25   ar
    18    25    26   ar
    19    26    27   ar
    20    27    28   ar
    21    19    20   ar
    22    20    21   ar
    23    21    22   ar
    24     8     9   ar
    25     9    10   ar
    26    29    10    1
    27    29    30    1
    28    30    31    1
    29    31    33    1
    30    33    34    1
    31    34    35    1
    32    35    36    1
    33    36    37    1
    34    31    32    1
    35     7     2   ar
    36    22    13   ar
    37    32    29    1
    38    10     6   ar
    39    37    34    1
    40    21    16   ar
    41    28    23   ar
    42     1    11    1
    43     1    12    1
