@<TRIPOS>MOLECULE
*****
 32 36 0 0 0
SMALL
GASTEIGER

@<TRIPOS>ATOM
      1 N          63.3131   89.8333   12.5519 N.pl3   1  UNL1       -0.2931
      2 C          63.6585   91.2901   12.6446 C.3     1  UNL1        0.0940
      3 C          64.6790   91.4563   13.7313 C.3     1  UNL1        0.0233
      4 C          64.9642   90.1022   14.3102 C.3     1  UNL1        0.0233
      5 C          64.1200   89.0992   13.5814 C.3     1  UNL1        0.0940
      6 C          63.1722   88.3302   12.6928 C.3     1  UNL1        0.1131
      7 N          62.4350   89.1955   11.7141 N.am    1  UNL1       -0.2761
      8 C          61.4547   88.5808   10.7596 C.2     1  UNL1        0.2275
      9 O          60.5685   89.1277    9.6800 O.2     1  UNL1       -0.2748
     10 C          62.6781   90.6754   11.6900 C.3     1  UNL1        0.1131
     11 C          60.3722   87.9895    9.6880 C.ar    1  UNL1        0.0877
     12 C          61.7655   88.3063    9.2318 C.ar    1  UNL1        0.0147
     13 C          62.7458   88.9209   10.1864 C.ar    1  UNL1        0.0350
     14 C          62.3327   89.2187   11.5973 C.ar    1  UNL1        0.1317
     15 N          60.9393   88.9020   12.0535 N.ar    1  UNL1       -0.2285
     16 C          59.9590   88.2874   11.0989 C.ar    1  UNL1        0.1105
     17 N          58.4116   86.7603    7.7789 N.1     1  UNL1       -0.1908
     18 C          59.3919   87.3750    8.7335 C.1     1  UNL1        0.1020
     19 C          61.2116   87.1008   10.7838 C.3     1  UNL1        0.1110
     20 C          62.2978   86.1555   10.3637 C.3     1  UNL1        0.1655
     21 S          62.5710   84.9208   11.1705 S.O2    1  UNL1        0.0097
     22 O          61.6781   85.4355   12.2604 O.2     1  UNL1       -0.1686
     23 O          63.4639   84.4060   10.0807 O.2     1  UNL1       -0.1686
     24 C          62.8442   83.6862   11.9774 C.ar    1  UNL1        0.1131
     25 C          62.5751   82.3321   11.3909 C.ar    1  UNL1        0.0190
     26 C          62.8483   81.0975   12.1977 C.ar    1  UNL1        0.0029
     27 C          63.3905   81.2169   13.5913 C.ar    1  UNL1        0.0197
     28 C          63.6595   82.5710   14.1778 C.ar    1  UNL1        0.0892
     29 N          64.1894   82.9985   15.5144 N.ar    1  UNL1       -0.2362
     30 C          64.2437   84.4974   15.5335 C.ar    1  UNL1        0.1345
     31 S          63.7474   84.9962   14.2088 S.2     1  UNL1       -0.0632
     32 C          63.3864   83.8056   13.3709 C.ar    1  UNL1        0.0656
@<TRIPOS>BOND
     1    17    18    3
     2    18    11    1
     3    11    12   ar
     4    12    13   ar
     5    13    14   ar
     6    14     1    1
     7     1     2    1
     8     2     3    1
     9     3     4    1
    10     4     5    1
    11     5     6    1
    12     6     7    1
    13     7     8   am
    14     8     9    2
    15     8    19    1
    16    19    20    1
    17    20    21    1
    18    21    22    2
    19    21    23    2
    20    21    24    1
    21    24    25   ar
    22    25    26   ar
    23    26    27   ar
    24    27    28   ar
    25    28    29   ar
    26    29    30   ar
    27    30    31   ar
    28    31    32   ar
    29     7    10    1
    30    14    15   ar
    31    15    16   ar
    32    16    11   ar
    33     5     1    1
    34    32    24   ar
    35    10     2    1
    36    32    28   ar
@<TRIPOS>MOLECULE
*****
 32 36 0 0 0
SMALL
GASTEIGER

@<TRIPOS>ATOM
      1 N          63.2598   89.7912   12.2820 N.pl3   1  UNL1       -0.2931
      2 C          63.7272   91.2141   12.2006 C.3     1  UNL1        0.0940
      3 C          64.6941   91.4495   13.3230 C.3     1  UNL1        0.0233
      4 C          64.8242   90.1718   14.0981 C.3     1  UNL1        0.0233
      5 C          63.9378   89.1470   13.4548 C.3     1  UNL1        0.0940
      6 C          62.9783   88.3389   12.6148 C.3     1  UNL1        0.1131
      7 N          62.3784   89.1140   11.4793 N.am    1  UNL1       -0.2761
      8 C          61.4041   88.4515   10.5511 C.2     1  UNL1        0.2275
      9 O          60.6336   88.9102    9.3486 O.2     1  UNL1       -0.2748
     10 C          62.7528   90.5517   11.2722 C.3     1  UNL1        0.1131
     11 C          60.3369   87.8038    9.4968 C.ar    1  UNL1        0.0877
     12 C          61.7754   87.9475    9.0965 C.ar    1  UNL1        0.0147
     13 C          62.7496   88.6099   10.0250 C.ar    1  UNL1        0.0350
     14 C          62.2854   89.1287   11.3536 C.ar    1  UNL1        0.1317
     15 N          60.8470   88.9851   11.7539 N.ar    1  UNL1       -0.2285
     16 C          59.8727   88.3226   10.8254 C.ar    1  UNL1        0.1105
     17 N          58.3884   86.4789    7.6400 N.1     1  UNL1       -0.1908
     18 C          59.3626   87.1414    8.5684 C.1     1  UNL1        0.1020
     19 C          61.0296   87.0138   10.7582 C.3     1  UNL1        0.1110
     20 C          62.0498   85.9350   10.5454 C.3     1  UNL1        0.1655
     21 S          62.6195   85.1988   11.7216 S.O2    1  UNL1        0.0097
     22 O          61.4954   85.6997   12.5794 O.2     1  UNL1       -0.1686
     23 O          63.7435   84.6980   10.8639 O.2     1  UNL1       -0.1686
     24 C          63.1891   84.4627   12.8979 C.ar    1  UNL1        0.1131
     25 C          63.8608   85.2214   14.0039 C.ar    1  UNL1        0.0190
     26 C          64.4304   84.4854   15.1801 C.ar    1  UNL1        0.0029
     27 C          64.3283   82.9905   15.2505 C.ar    1  UNL1        0.0197
     28 C          63.6565   82.2317   14.1446 C.ar    1  UNL1        0.0892
     29 N          63.4076   80.7668   13.9396 N.ar    1  UNL1       -0.2362
     30 C          62.6842   80.5976   12.6365 C.ar    1  UNL1        0.1345
     31 S          62.4860   81.9579   12.0362 S.2     1  UNL1       -0.0632
     32 C          63.0869   82.9679   12.9683 C.ar    1  UNL1        0.0656
@<TRIPOS>BOND
     1    17    18    3
     2    18    11    1
     3    11    12   ar
     4    12    13   ar
     5    13    14   ar
     6    14     1    1
     7     1     2    1
     8     2     3    1
     9     3     4    1
    10     4     5    1
    11     5     6    1
    12     6     7    1
    13     7     8   am
    14     8     9    2
    15     8    19    1
    16    19    20    1
    17    20    21    1
    18    21    22    2
    19    21    23    2
    20    21    24    1
    21    24    25   ar
    22    25    26   ar
    23    26    27   ar
    24    27    28   ar
    25    28    29   ar
    26    29    30   ar
    27    30    31   ar
    28    31    32   ar
    29     7    10    1
    30    14    15   ar
    31    15    16   ar
    32    16    11   ar
    33     5     1    1
    34    32    24   ar
    35    10     2    1
    36    32    28   ar
@<TRIPOS>MOLECULE
*****
 32 36 0 0 0
SMALL
GASTEIGER

@<TRIPOS>ATOM
      1 N          63.9792   85.1022   14.1030 N.pl3   1  UNL1       -0.2931
      2 C          64.5395   85.0048   15.4910 C.3     1  UNL1        0.0940
      3 C          64.6156   86.3911   16.0585 C.3     1  UNL1        0.0233
      4 C          64.1024   87.3454   15.0212 C.3     1  UNL1        0.0233
      5 C          63.7090   86.5488   13.8126 C.3     1  UNL1        0.0940
      6 C          63.4037   85.5098   12.7606 C.3     1  UNL1        0.1131
      7 N          63.7247   84.1096   13.1921 N.am    1  UNL1       -0.2761
      8 C          63.4779   82.9619   12.2583 C.2     1  UNL1        0.2275
      9 O          63.6756   81.4782   12.3558 O.2     1  UNL1       -0.2748
     10 C          64.2926   83.8570   14.5572 C.3     1  UNL1        0.1131
     11 C          63.2385   81.6589   11.3020 C.ar    1  UNL1        0.0877
     12 C          62.1737   82.0798   12.2710 C.ar    1  UNL1        0.0147
     13 C          62.4206   83.2276   13.2046 C.ar    1  UNL1        0.0350
     14 C          63.7323   83.9544   13.1693 C.ar    1  UNL1        0.1317
     15 N          64.7971   83.5334   12.2003 N.ar    1  UNL1       -0.2285
     16 C          64.5502   82.3856   11.2666 C.ar    1  UNL1        0.1105
     17 N          62.7448   79.3633    9.4348 N.1     1  UNL1       -0.1908
     18 C          62.9917   80.5111   10.3684 C.1     1  UNL1        0.1020
     19 C          62.9100   83.2145   10.8932 C.3     1  UNL1        0.1110
     20 C          63.3644   84.4039   10.1002 C.3     1  UNL1        0.1655
     21 S          62.3554   85.3637    9.5428 S.O2    1  UNL1        0.0097
     22 O          63.2331   85.5923    8.3480 O.2     1  UNL1       -0.1686
     23 O          61.4777   85.1350   10.7375 O.2     1  UNL1       -0.1686
     24 C          61.3464   86.3234    8.9853 C.ar    1  UNL1        0.1131
     25 C          60.3939   85.8739    7.9173 C.ar    1  UNL1        0.0190
     26 C          59.3850   86.8336    7.3598 C.ar    1  UNL1        0.0029
     27 C          59.3285   88.2430    7.8703 C.ar    1  UNL1        0.0197
     28 C          60.2810   88.6926    8.9383 C.ar    1  UNL1        0.0892
     29 N          60.4612   90.0099    9.6327 N.ar    1  UNL1       -0.2362
     30 C          61.5816   89.8642   10.6194 C.ar    1  UNL1        0.1345
     31 S          62.0938   88.4569   10.5348 S.2     1  UNL1       -0.0632
     32 C          61.2900   87.7328    9.4958 C.ar    1  UNL1        0.0656
@<TRIPOS>BOND
     1    17    18    3
     2    18    11    1
     3    11    12   ar
     4    12    13   ar
     5    13    14   ar
     6    14     1    1
     7     1     2    1
     8     2     3    1
     9     3     4    1
    10     4     5    1
    11     5     6    1
    12     6     7    1
    13     7     8   am
    14     8     9    2
    15     8    19    1
    16    19    20    1
    17    20    21    1
    18    21    22    2
    19    21    23    2
    20    21    24    1
    21    24    25   ar
    22    25    26   ar
    23    26    27   ar
    24    27    28   ar
    25    28    29   ar
    26    29    30   ar
    27    30    31   ar
    28    31    32   ar
    29     7    10    1
    30    14    15   ar
    31    15    16   ar
    32    16    11   ar
    33     5     1    1
    34    32    24   ar
    35    10     2    1
    36    32    28   ar
@<TRIPOS>MOLECULE
*****
 32 36 0 0 0
SMALL
GASTEIGER

@<TRIPOS>ATOM
      1 N          62.9111   80.5430   11.5614 N.pl3   1  UNL1       -0.2931
      2 C          62.8242   79.1087   11.9918 C.3     1  UNL1        0.0940
      3 C          62.6935   78.2622   10.7603 C.3     1  UNL1        0.0233
      4 C          62.6996   79.1735    9.5688 C.3     1  UNL1        0.0233
      5 C          62.8341   80.5831   10.0639 C.3     1  UNL1        0.0940
      6 C          62.9741   81.8729   10.8359 C.3     1  UNL1        0.1131
      7 N          63.0386   81.6768   12.3216 N.am    1  UNL1       -0.2761
      8 C          63.1780   82.8628   13.2293 C.2     1  UNL1        0.2275
      9 O          63.2704   83.0313   14.7169 O.2     1  UNL1       -0.2748
     10 C          62.9636   80.2947   12.8996 C.3     1  UNL1        0.1131
     11 C          63.3290   84.1008   14.2848 C.ar    1  UNL1        0.0877
     12 C          61.9860   83.4637   14.0840 C.ar    1  UNL1        0.0147
     13 C          61.8467   82.2778   13.1762 C.ar    1  UNL1        0.0350
     14 C          63.0505   81.7290   12.4692 C.ar    1  UNL1        0.1317
     15 N          64.3935   82.3661   12.6700 N.ar    1  UNL1       -0.2285
     16 C          64.5327   83.5521   13.5778 C.ar    1  UNL1        0.1105
     17 N          63.6078   86.4728   16.1003 N.1     1  UNL1       -0.1908
     18 C          63.4684   85.2868   15.1926 C.1     1  UNL1        0.1020
     19 C          63.2529   84.2450   12.6512 C.3     1  UNL1        0.1110
     20 C          62.7848   84.4977   11.2488 C.3     1  UNL1        0.1655
     21 S          62.3326   85.8697   10.8448 S.O2    1  UNL1        0.0097
     22 O          62.9921   85.6936    9.5091 O.2     1  UNL1       -0.1686
     23 O          61.6732   86.0458   12.1805 O.2     1  UNL1       -0.1686
     24 C          61.8805   87.2417   10.4407 C.ar    1  UNL1        0.1131
     25 C          62.4537   88.4504   11.1193 C.ar    1  UNL1        0.0190
     26 C          62.0016   89.8223   10.7153 C.ar    1  UNL1        0.0029
     27 C          60.9764   89.9857    9.6325 C.ar    1  UNL1        0.0197
     28 C          60.4032   88.7770    8.9540 C.ar    1  UNL1        0.0892
     29 N          59.3858   88.6269    7.8620 N.ar    1  UNL1       -0.2362
     30 C          59.2091   87.1622    7.5912 C.ar    1  UNL1        0.1345
     31 S          60.1173   86.4070    8.5158 S.2     1  UNL1       -0.0632
     32 C          60.8553   87.4050    9.3580 C.ar    1  UNL1        0.0656
@<TRIPOS>BOND
     1    17    18    3
     2    18    11    1
     3    11    12   ar
     4    12    13   ar
     5    13    14   ar
     6    14     1    1
     7     1     2    1
     8     2     3    1
     9     3     4    1
    10     4     5    1
    11     5     6    1
    12     6     7    1
    13     7     8   am
    14     8     9    2
    15     8    19    1
    16    19    20    1
    17    20    21    1
    18    21    22    2
    19    21    23    2
    20    21    24    1
    21    24    25   ar
    22    25    26   ar
    23    26    27   ar
    24    27    28   ar
    25    28    29   ar
    26    29    30   ar
    27    30    31   ar
    28    31    32   ar
    29     7    10    1
    30    14    15   ar
    31    15    16   ar
    32    16    11   ar
    33     5     1    1
    34    32    24   ar
    35    10     2    1
    36    32    28   ar
@<TRIPOS>MOLECULE
*****
 32 36 0 0 0
SMALL
GASTEIGER

@<TRIPOS>ATOM
      1 N          62.8817   84.9808   12.4010 N.pl3   1  UNL1       -0.2931
      2 C          62.7360   83.4979   12.5734 C.3     1  UNL1        0.0940
      3 C          63.5970   83.0785   13.7278 C.3     1  UNL1        0.0233
      4 C          64.2750   84.3023   14.2689 C.3     1  UNL1        0.0233
      5 C          63.8329   85.4780   13.4489 C.3     1  UNL1        0.0940
      6 C          63.2250   86.4560   12.4726 C.3     1  UNL1        0.1131
      7 N          62.2954   85.8155   11.4849 N.am    1  UNL1       -0.2761
      8 C          61.6103   86.6541   10.4470 C.2     1  UNL1        0.2275
      9 O          60.6466   86.3564    9.3367 O.2     1  UNL1       -0.2748
     10 C          62.0508   84.3364   11.5353 C.3     1  UNL1        0.1131
     11 C          60.8264   87.4962    9.2868 C.ar    1  UNL1        0.0877
     12 C          62.1243   86.8165    8.9650 C.ar    1  UNL1        0.0147
     13 C          62.8093   85.9781   10.0031 C.ar    1  UNL1        0.0350
     14 C          62.1965   85.8193   11.3630 C.ar    1  UNL1        0.1317
     15 N          60.8987   86.4990   11.6848 N.ar    1  UNL1       -0.2285
     16 C          60.2136   87.3375   10.6467 C.ar    1  UNL1        0.1105
     17 N          59.4562   89.1732    7.2107 N.1     1  UNL1       -0.1908
     18 C          60.1413   88.3347    8.2488 C.1     1  UNL1        0.1020
     19 C          61.8548   88.1332   10.3966 C.3     1  UNL1        0.1110
     20 C          62.0074   88.9118   11.6696 C.3     1  UNL1        0.1655
     21 S          62.9990   90.0346   11.7477 S.O2    1  UNL1        0.0097
     22 O          62.1910   90.8170   10.7552 O.2     1  UNL1       -0.1686
     23 O          63.8069   89.2522   12.7403 O.2     1  UNL1       -0.1686
     24 C          63.9905   91.1575   11.8258 C.ar    1  UNL1        0.1131
     25 C          64.3823   91.8999   10.5827 C.ar    1  UNL1        0.0190
     26 C          65.3737   93.0227   10.6608 C.ar    1  UNL1        0.0029
     27 C          65.9735   93.4032   11.9820 C.ar    1  UNL1        0.0197
     28 C          65.5817   92.6608   13.2251 C.ar    1  UNL1        0.0892
     29 N          66.0023   92.8091   14.6573 N.ar    1  UNL1       -0.2362
     30 C          65.2707   91.7779   15.4643 C.ar    1  UNL1        0.1345
     31 S          64.3980   90.9922   14.5310 S.2     1  UNL1       -0.0632
     32 C          64.5902   91.5379   13.1470 C.ar    1  UNL1        0.0656
@<TRIPOS>BOND
     1    17    18    3
     2    18    11    1
     3    11    12   ar
     4    12    13   ar
     5    13    14   ar
     6    14     1    1
     7     1     2    1
     8     2     3    1
     9     3     4    1
    10     4     5    1
    11     5     6    1
    12     6     7    1
    13     7     8   am
    14     8     9    2
    15     8    19    1
    16    19    20    1
    17    20    21    1
    18    21    22    2
    19    21    23    2
    20    21    24    1
    21    24    25   ar
    22    25    26   ar
    23    26    27   ar
    24    27    28   ar
    25    28    29   ar
    26    29    30   ar
    27    30    31   ar
    28    31    32   ar
    29     7    10    1
    30    14    15   ar
    31    15    16   ar
    32    16    11   ar
    33     5     1    1
    34    32    24   ar
    35    10     2    1
    36    32    28   ar
@<TRIPOS>MOLECULE
*****
 32 36 0 0 0
SMALL
GASTEIGER

@<TRIPOS>ATOM
      1 N          62.8791   80.5210   11.7012 N.pl3   1  UNL1       -0.2931
      2 C          62.7968   79.0585   12.0245 C.3     1  UNL1        0.0940
      3 C          62.7345   78.3007   10.7315 C.3     1  UNL1        0.0233
      4 C          62.7785   79.2949    9.6091 C.3     1  UNL1        0.0233
      5 C          62.8678   80.6670   10.2084 C.3     1  UNL1        0.0940
      6 C          62.9525   81.9001   11.0753 C.3     1  UNL1        0.1131
      7 N          62.9543   81.5991   12.5448 N.am    1  UNL1       -0.2761
      8 C          63.0340   82.7189   13.5396 C.2     1  UNL1        0.2275
      9 O          63.0578   82.7817   15.0381 O.2     1  UNL1       -0.2748
     10 C          62.8765   80.1783   13.0194 C.3     1  UNL1        0.1131
     11 C          63.1180   83.8801   14.6860 C.ar    1  UNL1        0.0877
     12 C          61.7866   83.2915   14.3243 C.ar    1  UNL1        0.0147
     13 C          61.7070   82.1718   13.3293 C.ar    1  UNL1        0.0350
     14 C          62.9588   81.6407   12.6962 C.ar    1  UNL1        0.1317
     15 N          64.2902   82.2294   13.0579 N.ar    1  UNL1       -0.2285
     16 C          64.3698   83.3491   14.0528 C.ar    1  UNL1        0.1105
     17 N          63.2774   86.1195   16.6758 N.1     1  UNL1       -0.1908
     18 C          63.1976   84.9998   15.6809 C.1     1  UNL1        0.1020
     19 C          63.1119   84.1397   13.0650 C.3     1  UNL1        0.1110
     20 C          63.2219   84.4355   11.5986 C.3     1  UNL1        0.1655
     21 S          62.4399   85.5676   11.0011 S.O2    1  UNL1        0.0097
     22 O          61.8494   85.8696   12.3465 O.2     1  UNL1       -0.1686
     23 O          63.0304   85.2655    9.6557 O.2     1  UNL1       -0.1686
     24 C          61.6579   86.6996   10.4037 C.ar    1  UNL1        0.1131
     25 C          60.6070   86.4220    9.3700 C.ar    1  UNL1        0.0190
     26 C          59.8250   87.5540    8.7726 C.ar    1  UNL1        0.0029
     27 C          60.0938   88.9638    9.2089 C.ar    1  UNL1        0.0197
     28 C          61.1447   89.2414   10.2427 C.ar    1  UNL1        0.0892
     29 N          61.6276   90.5178   10.8652 N.ar    1  UNL1       -0.2362
     30 C          62.7081   90.1746   11.8474 C.ar    1  UNL1        0.1345
     31 S          62.8930   88.6861   11.8319 S.2     1  UNL1       -0.0632
     32 C          61.9267   88.1094   10.8401 C.ar    1  UNL1        0.0656
@<TRIPOS>BOND
     1    17    18    3
     2    18    11    1
     3    11    12   ar
     4    12    13   ar
     5    13    14   ar
     6    14     1    1
     7     1     2    1
     8     2     3    1
     9     3     4    1
    10     4     5    1
    11     5     6    1
    12     6     7    1
    13     7     8   am
    14     8     9    2
    15     8    19    1
    16    19    20    1
    17    20    21    1
    18    21    22    2
    19    21    23    2
    20    21    24    1
    21    24    25   ar
    22    25    26   ar
    23    26    27   ar
    24    27    28   ar
    25    28    29   ar
    26    29    30   ar
    27    30    31   ar
    28    31    32   ar
    29     7    10    1
    30    14    15   ar
    31    15    16   ar
    32    16    11   ar
    33     5     1    1
    34    32    24   ar
    35    10     2    1
    36    32    28   ar
@<TRIPOS>MOLECULE
*****
 32 36 0 0 0
SMALL
GASTEIGER

@<TRIPOS>ATOM
      1 N          60.1939   87.8710    8.5746 N.pl3   1  UNL1       -0.2931
      2 C          59.2157   87.3071    7.5871 C.3     1  UNL1        0.0940
      3 C          58.6827   88.4415    6.7631 C.3     1  UNL1        0.0233
      4 C          59.3314   89.7066    7.2415 C.3     1  UNL1        0.0233
      5 C          60.2654   89.3540    8.3611 C.3     1  UNL1        0.0940
      6 C          61.1106   88.7163    9.4373 C.3     1  UNL1        0.1131
      7 N          60.9344   87.2299    9.5339 N.am    1  UNL1       -0.2761
      8 C          61.7057   86.4481   10.5557 C.2     1  UNL1        0.2275
      9 O          61.7748   84.9950   10.9214 O.2     1  UNL1       -0.2748
     10 C          59.9870   86.5252    8.6088 C.3     1  UNL1        0.1131
     11 C          62.5077   85.5252   11.6396 C.ar    1  UNL1        0.0877
     12 C          63.0020   85.6042   10.2256 C.ar    1  UNL1        0.0147
     13 C          62.2308   86.3861    9.2040 C.ar    1  UNL1        0.0350
     14 C          60.9651   87.0891    9.5964 C.ar    1  UNL1        0.1317
     15 N          60.4708   87.0102   11.0104 N.ar    1  UNL1       -0.2285
     16 C          61.2420   86.2282   12.0320 C.ar    1  UNL1        0.1105
     17 N          64.0501   83.9614   13.6829 N.1     1  UNL1       -0.1908
     18 C          63.2789   84.7434   12.6613 C.1     1  UNL1        0.1020
     19 C          62.6531   87.1528   11.4808 C.3     1  UNL1        0.1110
     20 C          62.7905   88.6452   11.4192 C.3     1  UNL1        0.1655
     21 S          63.2354   89.4081   12.6317 S.O2    1  UNL1        0.0097
     22 O          62.5565   90.6383   12.1066 O.2     1  UNL1       -0.1686
     23 O          63.9142   88.1778   13.1568 O.2     1  UNL1       -0.1686
     24 C          63.6802   90.1710   13.8441 C.ar    1  UNL1        0.1131
     25 C          63.1584   89.7960   15.1995 C.ar    1  UNL1        0.0190
     26 C          63.6032   90.5589   16.4119 C.ar    1  UNL1        0.0029
     27 C          64.5700   91.6970   16.2690 C.ar    1  UNL1        0.0197
     28 C          65.0918   92.0720   14.9137 C.ar    1  UNL1        0.0892
     29 N          66.0467   93.1385   14.4657 N.ar    1  UNL1       -0.2362
     30 C          66.1919   93.0347   12.9764 C.ar    1  UNL1        0.1345
     31 S          65.3269   91.9040   12.5039 S.2     1  UNL1       -0.0632
     32 C          64.6470   91.3090   13.7012 C.ar    1  UNL1        0.0656
@<TRIPOS>BOND
     1    17    18    3
     2    18    11    1
     3    11    12   ar
     4    12    13   ar
     5    13    14   ar
     6    14     1    1
     7     1     2    1
     8     2     3    1
     9     3     4    1
    10     4     5    1
    11     5     6    1
    12     6     7    1
    13     7     8   am
    14     8     9    2
    15     8    19    1
    16    19    20    1
    17    20    21    1
    18    21    22    2
    19    21    23    2
    20    21    24    1
    21    24    25   ar
    22    25    26   ar
    23    26    27   ar
    24    27    28   ar
    25    28    29   ar
    26    29    30   ar
    27    30    31   ar
    28    31    32   ar
    29     7    10    1
    30    14    15   ar
    31    15    16   ar
    32    16    11   ar
    33     5     1    1
    34    32    24   ar
    35    10     2    1
    36    32    28   ar
@<TRIPOS>MOLECULE
*****
 32 36 0 0 0
SMALL
GASTEIGER

@<TRIPOS>ATOM
      1 N          62.9608   81.3621   12.2408 N.pl3   1  UNL1       -0.2931
      2 C          62.7864   79.8963   12.5072 C.3     1  UNL1        0.0940
      3 C          62.7855   79.1822   11.1881 C.3     1  UNL1        0.0233
      4 C          62.9593   80.2069   10.1064 C.3     1  UNL1        0.0233
      5 C          63.0677   81.5541   10.7570 C.3     1  UNL1        0.0940
      6 C          63.1449   82.7545   11.6693 C.3     1  UNL1        0.1131
      7 N          63.0231   82.4090   13.1239 N.am    1  UNL1       -0.2761
      8 C          63.0805   83.4926   14.1595 C.2     1  UNL1        0.2275
      9 O          62.9954   83.5085   15.6570 O.2     1  UNL1       -0.2748
     10 C          62.8438   80.9799   13.5429 C.3     1  UNL1        0.1131
     11 C          63.1333   84.6128   15.3478 C.ar    1  UNL1        0.0877
     12 C          64.4006   84.0846   14.7438 C.ar    1  UNL1        0.0147
     13 C          64.3431   83.0010   13.7082 C.ar    1  UNL1        0.0350
     14 C          63.0182   82.4457   13.2765 C.ar    1  UNL1        0.1317
     15 N          61.7509   82.9739   13.8805 N.ar    1  UNL1       -0.2285
     16 C          61.8084   84.0575   14.9162 C.ar    1  UNL1        0.1105
     17 N          63.2481   86.7799   17.4191 N.1     1  UNL1       -0.1908
     18 C          63.1907   85.6963   16.3835 C.1     1  UNL1        0.1020
     19 C          63.2598   84.9217   13.7405 C.3     1  UNL1        0.1110
     20 C          62.4907   85.4627   12.5718 C.3     1  UNL1        0.1655
     21 S          62.6412   86.9018   12.1762 S.O2    1  UNL1        0.0097
     22 O          61.3954   86.8039   11.3465 O.2     1  UNL1       -0.1686
     23 O          63.8870   86.9996   13.0059 O.2     1  UNL1       -0.1686
     24 C          62.7917   88.3408   11.7805 C.ar    1  UNL1        0.1131
     25 C          62.3803   88.7886   10.4094 C.ar    1  UNL1        0.0190
     26 C          62.5307   90.2275   10.0137 C.ar    1  UNL1        0.0029
     27 C          63.0927   91.2189   10.9892 C.ar    1  UNL1        0.0197
     28 C          63.5041   90.7711   12.3604 C.ar    1  UNL1        0.0892
     29 N          64.0851   91.5142   13.5267 N.ar    1  UNL1       -0.2362
     30 C          64.2937   90.5344   14.6431 C.ar    1  UNL1        0.1345
     31 S          63.8416   89.1858   14.1669 S.2     1  UNL1       -0.0632
     32 C          63.3536   89.3320   12.7561 C.ar    1  UNL1        0.0656
@<TRIPOS>BOND
     1    17    18    3
     2    18    11    1
     3    11    12   ar
     4    12    13   ar
     5    13    14   ar
     6    14     1    1
     7     1     2    1
     8     2     3    1
     9     3     4    1
    10     4     5    1
    11     5     6    1
    12     6     7    1
    13     7     8   am
    14     8     9    2
    15     8    19    1
    16    19    20    1
    17    20    21    1
    18    21    22    2
    19    21    23    2
    20    21    24    1
    21    24    25   ar
    22    25    26   ar
    23    26    27   ar
    24    27    28   ar
    25    28    29   ar
    26    29    30   ar
    27    30    31   ar
    28    31    32   ar
    29     7    10    1
    30    14    15   ar
    31    15    16   ar
    32    16    11   ar
    33     5     1    1
    34    32    24   ar
    35    10     2    1
    36    32    28   ar
