@<TRIPOS>MOLECULE
*****
 24 27 0 0 0
SMALL
GASTEIGER

@<TRIPOS>ATOM
      1 N          64.1729   90.9033   13.7496 N.ar    1  UNL1       -0.3100
      2 C          65.3436   91.6557   13.1897 C.ar    1  UNL1        0.1317
      3 N          65.1027   91.8637   11.7239 N.ar    1  UNL1       -0.2300
      4 C          63.7832   91.2398   11.3779 C.ar    1  UNL1        0.0984
      5 C          63.0307   91.1355   10.0845 C.ar    1  UNL1        0.0206
      6 C          61.7036   90.4377   10.0432 C.ar    1  UNL1        0.0016
      7 C          61.1290   89.8441   11.2952 C.ar    1  UNL1        0.0016
      8 C          61.8815   89.9484   12.5885 C.ar    1  UNL1        0.0188
      9 C          63.2086   90.6463   12.6299 C.ar    1  UNL1        0.0789
     10 C          66.5443   92.1188   13.9604 C.3     1  UNL1        0.1199
     11 C          67.9231   91.8367   13.4415 C.3     1  UNL1        0.0871
     12 N          69.1238   92.2998   14.2121 N.3     1  UNL1       -0.2957
     13 C          68.9457   93.0451   15.5016 C.3     1  UNL1        0.0804
     14 C          67.5669   93.3273   16.0204 C.3     1  UNL1        0.0750
     15 S          66.3662   92.8642   15.2498 S.3     1  UNL1       -0.1306
     16 H          69.6553   92.9094   13.5907 H       1  UNL1        0.1233
     17 C          63.9975   90.4819   15.1785 C.3     1  UNL1        0.1339
     18 F          63.4015   84.6691   16.5405 F       1  UNL1       -0.2042
     19 C          63.5505   86.1223   16.2001 C.ar    1  UNL1        0.1401
     20 C          64.2850   86.5299   14.9573 C.ar    1  UNL1        0.0294
     21 C          64.4340   87.9831   14.6168 C.ar    1  UNL1       -0.0001
     22 C          63.8485   89.0288   15.5190 C.ar    1  UNL1        0.0006
     23 C          63.1140   88.6211   16.7617 C.ar    1  UNL1       -0.0001
     24 C          62.9650   87.1679   17.1022 C.ar    1  UNL1        0.0294
@<TRIPOS>BOND
     1    18    19    1
     2    19    20   ar
     3    20    21   ar
     4    21    22   ar
     5    22    17    1
     6    17     1    1
     7     1     2   ar
     8     2    10    1
     9    10    11    1
    10    11    12    1
    11    12    13    1
    12    13    14    1
    13    14    15    1
    14     2     3   ar
    15     3     4   ar
    16     4     5   ar
    17     5     6   ar
    18     6     7   ar
    19     7     8   ar
    20     8     9   ar
    21    22    23   ar
    22    23    24   ar
    23    24    19   ar
    24     9     1   ar
    25    15    10    1
    26     9     4   ar
    27    12    16    1
@<TRIPOS>MOLECULE
*****
 24 27 0 0 0
SMALL
GASTEIGER

@<TRIPOS>ATOM
      1 N          62.2248   86.8605   11.8882 N.ar    1  UNL1       -0.3100
      2 C          63.0964   86.2351   12.9366 C.ar    1  UNL1        0.1317
      3 N          63.9575   87.3124   13.5264 N.ar    1  UNL1       -0.2300
      4 C          63.6180   88.6036   12.8426 C.ar    1  UNL1        0.0984
      5 C          64.1457   89.9975   13.0111 C.ar    1  UNL1        0.0206
      6 C          63.6024   91.1122   12.1670 C.ar    1  UNL1        0.0016
      7 C          62.5315   90.8329   11.1545 C.ar    1  UNL1        0.0016
      8 C          62.0039   89.4389   10.9861 C.ar    1  UNL1        0.0188
      9 C          62.5471   88.3243   11.8301 C.ar    1  UNL1        0.0789
     10 C          63.1054   84.7867   13.3266 C.3     1  UNL1        0.1199
     11 C          62.3753   84.3368   14.5573 C.3     1  UNL1        0.0871
     12 N          62.3843   82.8885   14.9473 N.3     1  UNL1       -0.2957
     13 C          63.1234   81.8900   14.1067 C.3     1  UNL1        0.0804
     14 C          63.8535   82.3398   12.8760 C.3     1  UNL1        0.0750
     15 S          63.8445   83.7882   12.4860 S.3     1  UNL1       -0.1306
     16 H          61.4108   82.5854   14.9767 H       1  UNL1        0.1233
     17 C          61.2090   86.1473   11.0458 C.3     1  UNL1        0.1339
     18 F          62.5402   84.6088    5.4012 F       1  UNL1       -0.2042
     19 C          62.2074   84.9934    6.8123 C.ar    1  UNL1        0.1401
     20 C          63.2155   84.7865    7.9037 C.ar    1  UNL1        0.0294
     21 C          62.8827   85.1711    9.3148 C.ar    1  UNL1       -0.0001
     22 C          61.5418   85.7627    9.6347 C.ar    1  UNL1        0.0006
     23 C          60.5338   85.9696    8.5433 C.ar    1  UNL1       -0.0001
     24 C          60.8666   85.5849    7.1322 C.ar    1  UNL1        0.0294
@<TRIPOS>BOND
     1    18    19    1
     2    19    20   ar
     3    20    21   ar
     4    21    22   ar
     5    22    17    1
     6    17     1    1
     7     1     2   ar
     8     2    10    1
     9    10    11    1
    10    11    12    1
    11    12    13    1
    12    13    14    1
    13    14    15    1
    14     2     3   ar
    15     3     4   ar
    16     4     5   ar
    17     5     6   ar
    18     6     7   ar
    19     7     8   ar
    20     8     9   ar
    21    22    23   ar
    22    23    24   ar
    23    24    19   ar
    24     9     1   ar
    25    15    10    1
    26     9     4   ar
    27    12    16    1
@<TRIPOS>MOLECULE
*****
 24 27 0 0 0
SMALL
GASTEIGER

@<TRIPOS>ATOM
      1 N          63.3108   83.2734   12.3749 N.ar    1  UNL1       -0.3100
      2 C          63.0122   83.1756   13.8416 C.ar    1  UNL1        0.1317
      3 N          62.6497   81.7525   14.1470 N.ar    1  UNL1       -0.2300
      4 C          62.7243   80.9707   12.8690 C.ar    1  UNL1        0.0984
      5 C          62.4729   79.5243   12.5611 C.ar    1  UNL1        0.0206
      6 C          62.6302   79.0180   11.1580 C.ar    1  UNL1        0.0016
      7 C          63.0388   79.9579   10.0627 C.ar    1  UNL1        0.0016
      8 C          63.2902   81.4043   10.3706 C.ar    1  UNL1        0.0188
      9 C          63.1329   81.9106   11.7738 C.ar    1  UNL1        0.0789
     10 C          63.0666   84.3031   14.8295 C.3     1  UNL1        0.1199
     11 C          61.9741   84.4641   15.8446 C.3     1  UNL1        0.0871
     12 N          62.0284   85.5915   16.8325 N.3     1  UNL1       -0.2957
     13 C          63.1752   86.5580   16.8053 C.3     1  UNL1        0.0804
     14 C          64.2677   86.3970   15.7901 C.3     1  UNL1        0.0750
     15 S          64.2134   85.2695   14.8022 S.3     1  UNL1       -0.1306
     16 H          62.0207   85.1698   17.7613 H       1  UNL1        0.1233
     17 C          63.7162   84.5157   11.6385 C.3     1  UNL1        0.1339
     18 F          60.0850   86.8548    7.4741 F       1  UNL1       -0.2042
     19 C          60.9928   86.2700    8.5152 C.ar    1  UNL1        0.1401
     20 C          60.6952   86.4759    9.9709 C.ar    1  UNL1        0.0294
     21 C          61.6030   85.8911   11.0120 C.ar    1  UNL1       -0.0001
     22 C          62.8085   85.1004   10.5974 C.ar    1  UNL1        0.0006
     23 C          63.1061   84.8946    9.1417 C.ar    1  UNL1       -0.0001
     24 C          62.1982   85.4794    8.1006 C.ar    1  UNL1        0.0294
@<TRIPOS>BOND
     1    18    19    1
     2    19    20   ar
     3    20    21   ar
     4    21    22   ar
     5    22    17    1
     6    17     1    1
     7     1     2   ar
     8     2    10    1
     9    10    11    1
    10    11    12    1
    11    12    13    1
    12    13    14    1
    13    14    15    1
    14     2     3   ar
    15     3     4   ar
    16     4     5   ar
    17     5     6   ar
    18     6     7   ar
    19     7     8   ar
    20     8     9   ar
    21    22    23   ar
    22    23    24   ar
    23    24    19   ar
    24     9     1   ar
    25    15    10    1
    26     9     4   ar
    27    12    16    1
@<TRIPOS>MOLECULE
*****
 24 27 0 0 0
SMALL
GASTEIGER

@<TRIPOS>ATOM
      1 N          63.6299   89.1886   12.6241 N.ar    1  UNL1       -0.3100
      2 C          63.6669   90.6699   12.3908 C.ar    1  UNL1        0.1317
      3 N          62.5971   91.0091   11.3955 N.ar    1  UNL1       -0.2300
      4 C          61.8991   89.7375   11.0137 C.ar    1  UNL1        0.0984
      5 C          60.7647   89.4588   10.0727 C.ar    1  UNL1        0.0206
      6 C          60.2686   88.0549    9.8911 C.ar    1  UNL1        0.0016
      7 C          60.9069   86.9298   10.6504 C.ar    1  UNL1        0.0016
      8 C          62.0413   87.2085   11.5914 C.ar    1  UNL1        0.0188
      9 C          62.5374   88.6124   11.7730 C.ar    1  UNL1        0.0789
     10 C          64.6082   91.6414   13.0389 C.3     1  UNL1        0.1199
     11 C          64.6883   91.7240   14.5345 C.3     1  UNL1        0.0871
     12 N          65.6297   92.6955   15.1826 N.3     1  UNL1       -0.2957
     13 C          66.4910   93.5843   14.3352 C.3     1  UNL1        0.0804
     14 C          66.4109   93.5016   12.8396 C.3     1  UNL1        0.0750
     15 S          65.4695   92.5302   12.1915 S.3     1  UNL1       -0.1306
     16 H          66.2592   92.1484   15.7698 H       1  UNL1        0.1233
     17 C          64.5279   88.4187   13.5465 C.3     1  UNL1        0.1339
     18 F          62.4465   86.4713   18.8262 F       1  UNL1       -0.2042
     19 C          62.9669   86.9582   17.5063 C.ar    1  UNL1        0.1401
     20 C          63.5191   85.9809   16.5113 C.ar    1  UNL1        0.0294
     21 C          64.0395   86.4678   15.1914 C.ar    1  UNL1       -0.0001
     22 C          64.0076   87.9319   14.8664 C.ar    1  UNL1        0.0006
     23 C          63.4553   88.9091   15.8615 C.ar    1  UNL1       -0.0001
     24 C          62.9349   88.4222   17.1814 C.ar    1  UNL1        0.0294
@<TRIPOS>BOND
     1    18    19    1
     2    19    20   ar
     3    20    21   ar
     4    21    22   ar
     5    22    17    1
     6    17     1    1
     7     1     2   ar
     8     2    10    1
     9    10    11    1
    10    11    12    1
    11    12    13    1
    12    13    14    1
    13    14    15    1
    14     2     3   ar
    15     3     4   ar
    16     4     5   ar
    17     5     6   ar
    18     6     7   ar
    19     7     8   ar
    20     8     9   ar
    21    22    23   ar
    22    23    24   ar
    23    24    19   ar
    24     9     1   ar
    25    15    10    1
    26     9     4   ar
    27    12    16    1
@<TRIPOS>MOLECULE
*****
 24 27 0 0 0
SMALL
GASTEIGER

@<TRIPOS>ATOM
      1 N          62.4012   88.1650   11.9403 N.ar    1  UNL1       -0.3100
      2 C          61.8714   87.2766   10.8540 C.ar    1  UNL1        0.1317
      3 N          62.3460   85.8797   11.1249 N.ar    1  UNL1       -0.2300
      4 C          63.1692   85.9048   12.3786 C.ar    1  UNL1        0.0984
      5 C          63.8921   84.8240   13.1264 C.ar    1  UNL1        0.0206
      6 C          64.6491   85.1556   14.3782 C.ar    1  UNL1        0.0016
      7 C          64.6832   86.5680   14.8821 C.ar    1  UNL1        0.0016
      8 C          63.9603   87.6488   14.1343 C.ar    1  UNL1        0.0188
      9 C          63.2033   87.3172   12.8826 C.ar    1  UNL1        0.0789
     10 C          61.0169   87.7092    9.6995 C.3     1  UNL1        0.1199
     11 C          60.9223   89.1622    9.3395 C.3     1  UNL1        0.0871
     12 N          60.0678   89.5947    8.1850 N.3     1  UNL1       -0.2957
     13 C          59.3080   88.5742    7.3905 C.3     1  UNL1        0.0804
     14 C          59.4027   87.1212    7.7506 C.3     1  UNL1        0.0750
     15 S          60.2571   86.6887    8.9050 S.3     1  UNL1       -0.1306
     16 H          60.6811   90.0804    7.5305 H       1  UNL1        0.1233
     17 C          62.1696   89.6419   12.0628 C.3     1  UNL1        0.1339
     18 F          66.8110   93.4367   11.8239 F       1  UNL1       -0.2042
     19 C          65.6507   92.4880   11.8836 C.ar    1  UNL1        0.1401
     20 C          65.2952   91.8184   13.1780 C.ar    1  UNL1        0.0294
     21 C          64.1349   90.8697   13.2377 C.ar    1  UNL1       -0.0001
     22 C          63.3299   90.5906   12.0030 C.ar    1  UNL1        0.0006
     23 C          63.6854   91.2602   10.7087 C.ar    1  UNL1       -0.0001
     24 C          64.8457   92.2089   10.6490 C.ar    1  UNL1        0.0294
@<TRIPOS>BOND
     1    18    19    1
     2    19    20   ar
     3    20    21   ar
     4    21    22   ar
     5    22    17    1
     6    17     1    1
     7     1     2   ar
     8     2    10    1
     9    10    11    1
    10    11    12    1
    11    12    13    1
    12    13    14    1
    13    14    15    1
    14     2     3   ar
    15     3     4   ar
    16     4     5   ar
    17     5     6   ar
    18     6     7   ar
    19     7     8   ar
    20     8     9   ar
    21    22    23   ar
    22    23    24   ar
    23    24    19   ar
    24     9     1   ar
    25    15    10    1
    26     9     4   ar
    27    12    16    1
@<TRIPOS>MOLECULE
*****
 24 27 0 0 0
SMALL
GASTEIGER

@<TRIPOS>ATOM
      1 N          61.4837   87.7251   10.8779 N.ar    1  UNL1       -0.3100
      2 C          62.1130   89.0776   11.0352 C.ar    1  UNL1        0.1317
      3 N          61.6323   89.9461    9.9107 N.ar    1  UNL1       -0.2300
      4 C          60.7059   89.1304    9.0584 C.ar    1  UNL1        0.0984
      5 C          59.9341   89.4602    7.8152 C.ar    1  UNL1        0.0206
      6 C          59.0704   88.4174    7.1698 C.ar    1  UNL1        0.0016
      7 C          58.9786   87.0447    7.7677 C.ar    1  UNL1        0.0016
      8 C          59.7504   86.7149    9.0108 C.ar    1  UNL1        0.0188
      9 C          60.6140   87.7577    9.6562 C.ar    1  UNL1        0.0789
     10 C          63.0573   89.4893   12.1256 C.3     1  UNL1        0.1199
     11 C          63.5071   88.4865   13.1464 C.3     1  UNL1        0.0871
     12 N          64.4513   88.8982   14.2368 N.3     1  UNL1       -0.2957
     13 C          64.9458   90.3126   14.3063 C.3     1  UNL1        0.0804
     14 C          64.4960   91.3153   13.2855 C.3     1  UNL1        0.0750
     15 S          63.5517   90.9037   12.1951 S.3     1  UNL1       -0.1306
     16 H          65.2748   88.3021   14.1537 H       1  UNL1        0.1233
     17 C          61.6881   86.5468   11.7834 C.3     1  UNL1        0.1339
     18 F          64.6825   81.7343    9.8155 F       1  UNL1       -0.2042
     19 C          63.9339   82.9375   10.3075 C.ar    1  UNL1        0.1401
     20 C          63.5643   83.0498   11.7569 C.ar    1  UNL1        0.0294
     21 C          62.8157   84.2530   12.2488 C.ar    1  UNL1       -0.0001
     22 C          62.4366   85.3438   11.2914 C.ar    1  UNL1        0.0006
     23 C          62.8063   85.2313    9.8420 C.ar    1  UNL1       -0.0001
     24 C          63.5549   84.0282    9.3501 C.ar    1  UNL1        0.0294
@<TRIPOS>BOND
     1    18    19    1
     2    19    20   ar
     3    20    21   ar
     4    21    22   ar
     5    22    17    1
     6    17     1    1
     7     1     2   ar
     8     2    10    1
     9    10    11    1
    10    11    12    1
    11    12    13    1
    12    13    14    1
    13    14    15    1
    14     2     3   ar
    15     3     4   ar
    16     4     5   ar
    17     5     6   ar
    18     6     7   ar
    19     7     8   ar
    20     8     9   ar
    21    22    23   ar
    22    23    24   ar
    23    24    19   ar
    24     9     1   ar
    25    15    10    1
    26     9     4   ar
    27    12    16    1
@<TRIPOS>MOLECULE
*****
 24 27 0 0 0
SMALL
GASTEIGER

@<TRIPOS>ATOM
      1 N          61.5401   87.9515   11.0572 N.ar    1  UNL1       -0.3100
      2 C          62.1390   86.6014   11.3188 C.ar    1  UNL1        0.1317
      3 N          61.7772   85.7039   10.1727 N.ar    1  UNL1       -0.2300
      4 C          60.9546   86.4993    9.2028 C.ar    1  UNL1        0.0984
      5 C          60.3202   86.1382    7.8924 C.ar    1  UNL1        0.0206
      6 C          59.5391   87.1661    7.1288 C.ar    1  UNL1        0.0016
      7 C          59.3926   88.5553    7.6755 C.ar    1  UNL1        0.0016
      8 C          60.0270   88.9164    8.9858 C.ar    1  UNL1        0.0188
      9 C          60.8081   87.8885    9.7494 C.ar    1  UNL1        0.0789
     10 C          62.9563   86.2164   12.5162 C.3     1  UNL1        0.1199
     11 C          63.5986   87.2783   13.3587 C.3     1  UNL1        0.0871
     12 N          64.4159   86.8933   14.5562 N.3     1  UNL1       -0.2957
     13 C          64.5908   85.4464   14.9111 C.3     1  UNL1        0.0804
     14 C          63.9485   84.3846   14.0685 C.3     1  UNL1        0.0750
     15 S          63.1313   84.7696   12.8711 S.3     1  UNL1       -0.1306
     16 H          63.9859   87.3446   15.3636 H       1  UNL1        0.1233
     17 C          61.6532   89.1537   11.9471 C.3     1  UNL1        0.1339
     18 F          65.8893   93.2723   10.9020 F       1  UNL1       -0.2042
     19 C          64.8302   92.2427   11.1633 C.ar    1  UNL1        0.1401
     20 C          64.6603   91.6746   12.5411 C.ar    1  UNL1        0.0294
     21 C          63.6012   90.6449   12.8024 C.ar    1  UNL1       -0.0001
     22 C          62.7122   90.1833   11.6858 C.ar    1  UNL1        0.0006
     23 C          62.8822   90.7515   10.3080 C.ar    1  UNL1       -0.0001
     24 C          63.9412   91.7811   10.0468 C.ar    1  UNL1        0.0294
@<TRIPOS>BOND
     1    18    19    1
     2    19    20   ar
     3    20    21   ar
     4    21    22   ar
     5    22    17    1
     6    17     1    1
     7     1     2   ar
     8     2    10    1
     9    10    11    1
    10    11    12    1
    11    12    13    1
    12    13    14    1
    13    14    15    1
    14     2     3   ar
    15     3     4   ar
    16     4     5   ar
    17     5     6   ar
    18     6     7   ar
    19     7     8   ar
    20     8     9   ar
    21    22    23   ar
    22    23    24   ar
    23    24    19   ar
    24     9     1   ar
    25    15    10    1
    26     9     4   ar
    27    12    16    1
@<TRIPOS>MOLECULE
*****
 24 27 0 0 0
SMALL
GASTEIGER

@<TRIPOS>ATOM
      1 N          63.8274   88.3345   13.5333 N.ar    1  UNL1       -0.3100
      2 C          63.8974   89.8299   13.4386 C.ar    1  UNL1        0.1317
      3 N          63.2274   90.2453   12.1625 N.ar    1  UNL1       -0.2300
      4 C          62.7434   89.0067   11.4685 C.ar    1  UNL1        0.0984
      5 C          62.0129   88.8017   10.1746 C.ar    1  UNL1        0.0206
      6 C          61.6532   87.4157    9.7279 C.ar    1  UNL1        0.0016
      7 C          62.0240   86.2347   10.5751 C.ar    1  UNL1        0.0016
      8 C          62.7545   86.4398   11.8690 C.ar    1  UNL1        0.0188
      9 C          63.1142   87.8258   12.3157 C.ar    1  UNL1        0.0789
     10 C          64.5268   90.7485   14.4436 C.3     1  UNL1        0.1199
     11 C          63.7985   91.0860   15.7107 C.3     1  UNL1        0.0871
     12 N          64.4280   92.0046   16.7156 N.3     1  UNL1       -0.2957
     13 C          65.7857   92.5857   16.4535 C.3     1  UNL1        0.0804
     14 C          66.5140   92.2482   15.1864 C.3     1  UNL1        0.0750
     15 S          65.8846   91.3296   14.1814 S.3     1  UNL1       -0.1306
     16 H          64.4945   91.4834   17.5899 H       1  UNL1        0.1233
     17 C          64.3746   87.4952   14.6496 C.3     1  UNL1        0.1339
     18 F          63.2183   81.6103   14.8232 F       1  UNL1       -0.2042
     19 C          63.5074   83.0815   14.7798 C.ar    1  UNL1        0.1401
     20 C          64.7097   83.5880   14.0396 C.ar    1  UNL1        0.0294
     21 C          64.9988   85.0593   13.9962 C.ar    1  UNL1       -0.0001
     22 C          64.0855   86.0240   14.6930 C.ar    1  UNL1        0.0006
     23 C          62.8832   85.5174   15.4331 C.ar    1  UNL1       -0.0001
     24 C          62.5942   84.0461   15.4765 C.ar    1  UNL1        0.0294
@<TRIPOS>BOND
     1    18    19    1
     2    19    20   ar
     3    20    21   ar
     4    21    22   ar
     5    22    17    1
     6    17     1    1
     7     1     2   ar
     8     2    10    1
     9    10    11    1
    10    11    12    1
    11    12    13    1
    12    13    14    1
    13    14    15    1
    14     2     3   ar
    15     3     4   ar
    16     4     5   ar
    17     5     6   ar
    18     6     7   ar
    19     7     8   ar
    20     8     9   ar
    21    22    23   ar
    22    23    24   ar
    23    24    19   ar
    24     9     1   ar
    25    15    10    1
    26     9     4   ar
    27    12    16    1
@<TRIPOS>MOLECULE
*****
 24 27 0 0 0
SMALL
GASTEIGER

@<TRIPOS>ATOM
      1 N          63.4452   87.3133   13.0758 N.ar    1  UNL1       -0.3100
      2 C          63.8700   87.6877   14.4648 C.ar    1  UNL1        0.1317
      3 N          64.1093   86.4220   15.2334 N.ar    1  UNL1       -0.2300
      4 C          63.8324   85.2653   14.3194 C.ar    1  UNL1        0.0984
      5 C          63.9010   83.7816   14.5290 C.ar    1  UNL1        0.0206
      6 C          63.5591   82.8488   13.4052 C.ar    1  UNL1        0.0016
      7 C          63.1487   83.3997   12.0718 C.ar    1  UNL1        0.0016
      8 C          63.0801   84.8834   11.8621 C.ar    1  UNL1        0.0188
      9 C          63.4219   85.8162   12.9859 C.ar    1  UNL1        0.0789
     10 C          64.0278   89.0829   14.9926 C.3     1  UNL1        0.1199
     11 C          63.2453   89.5232   16.1942 C.3     1  UNL1        0.0871
     12 N          63.4031   90.9184   16.7220 N.3     1  UNL1       -0.2957
     13 C          64.3433   91.8733   16.0482 C.3     1  UNL1        0.0804
     14 C          65.1258   91.4330   14.8466 C.3     1  UNL1        0.0750
     15 S          64.9680   90.0378   14.3188 S.3     1  UNL1       -0.1306
     16 H          63.7131   90.8337   17.6901 H       1  UNL1        0.1233
     17 C          63.1035   88.2683   11.9707 C.3     1  UNL1        0.1339
     18 F          58.7923   86.8835    8.0343 F       1  UNL1       -0.2042
     19 C          59.8701   87.2297    9.0184 C.ar    1  UNL1        0.1401
     20 C          59.5324   88.0000   10.2605 C.ar    1  UNL1        0.0294
     21 C          60.6102   88.3462   11.2446 C.ar    1  UNL1       -0.0001
     22 C          62.0258   87.9221   10.9867 C.ar    1  UNL1        0.0006
     23 C          62.3634   87.1518    9.7446 C.ar    1  UNL1       -0.0001
     24 C          61.2856   86.8056    8.7605 C.ar    1  UNL1        0.0294
@<TRIPOS>BOND
     1    18    19    1
     2    19    20   ar
     3    20    21   ar
     4    21    22   ar
     5    22    17    1
     6    17     1    1
     7     1     2   ar
     8     2    10    1
     9    10    11    1
    10    11    12    1
    11    12    13    1
    12    13    14    1
    13    14    15    1
    14     2     3   ar
    15     3     4   ar
    16     4     5   ar
    17     5     6   ar
    18     6     7   ar
    19     7     8   ar
    20     8     9   ar
    21    22    23   ar
    22    23    24   ar
    23    24    19   ar
    24     9     1   ar
    25    15    10    1
    26     9     4   ar
    27    12    16    1
