@<TRIPOS>MOLECULE
*****
 28 30 0 0 0
SMALL
GASTEIGER

@<TRIPOS>ATOM
      1 O          62.7394   86.4671   12.3630 O.2     1  UNL1       -0.2907
      2 C          62.6847   87.9210   11.9980 C.2     1  UNL1        0.1819
      3 C          63.6439   88.8884   12.6256 C.3     1  UNL1        0.0746
      4 C          63.5892   90.3423   12.2606 C.3     1  UNL1        0.0383
      5 C          62.5753   90.8287   11.2679 C.3     1  UNL1        0.0691
      6 C          61.6161   89.8613   10.6403 C.2     1  UNL1        0.1201
      7 O          60.6021   90.3477    9.6476 O.2     1  UNL1       -0.5092
      8 C          61.6708   88.4074   11.0053 C.2     1  UNL1        0.0936
      9 H          60.5680   91.2558    9.4196 H       1  UNL1        0.2917
     10 C          64.5484   91.3098   12.8882 C.ar    1  UNL1       -0.0072
     11 C          65.1973   92.3721   12.0514 C.ar    1  UNL1        0.0537
     12 CL         64.8869   92.4671   10.5869 Cl      1  UNL1       -0.0826
     13 C          66.1565   93.3396   12.6790 C.ar    1  UNL1        0.0111
     14 C          66.4669   93.2447   14.1435 C.ar    1  UNL1        0.0008
     15 C          65.8181   92.1823   14.9803 C.ar    1  UNL1        0.0036
     16 C          64.8588   91.2148   14.3527 C.ar    1  UNL1        0.0683
     17 C          64.2099   90.1524   15.1895 C.3     1  UNL1        0.4183
     18 F          63.5611   89.0900   16.0263 F       1  UNL1       -0.1659
     19 F          63.1192   91.1123   15.5624 F       1  UNL1       -0.1659
     20 F          65.3006   89.1925   14.8166 F       1  UNL1       -0.1659
     21 S          60.7115   87.4399   10.3777 S.3     1  UNL1       -0.0806
     22 C          61.1532   86.5863    9.2261 C.ar    1  UNL1        0.0402
     23 C          62.5374   86.0084    9.2084 C.ar    1  UNL1        0.0073
     24 C          62.9791   85.1548    8.0567 C.ar    1  UNL1        0.0006
     25 C          62.0366   84.8790    6.9228 C.ar    1  UNL1        0.0009
     26 C          60.6525   85.4569    6.9405 C.ar    1  UNL1        0.0119
     27 C          60.2108   86.3105    8.0921 C.ar    1  UNL1        0.0636
     28 CL         58.8266   86.8884    8.1098 Cl      1  UNL1       -0.0817
@<TRIPOS>BOND
     1     1     2    2
     2     2     3    1
     3     3     4    1
     4     4    10    1
     5    10    11   ar
     6    11    12    1
     7    11    13   ar
     8    13    14   ar
     9    14    15   ar
    10    15    16   ar
    11    16    17    1
    12    17    18    1
    13    17    19    1
    14    17    20    1
    15     4     5    1
    16     5     6    1
    17     6     7    1
    18     6     8    2
    19     8    21    1
    20    21    22    1
    21    22    23   ar
    22    23    24   ar
    23    24    25   ar
    24    25    26   ar
    25    26    27   ar
    26    27    28    1
    27     8     2    1
    28    27    22   ar
    29    16    10   ar
    30     7     9    1
@<TRIPOS>MOLECULE
*****
 28 30 0 0 0
SMALL
GASTEIGER

@<TRIPOS>ATOM
      1 O          61.4330   88.8886   10.6339 O.2     1  UNL1       -0.2907
      2 C          62.2600   88.1103   11.6139 C.2     1  UNL1        0.1819
      3 C          62.3174   86.6141   11.5252 C.3     1  UNL1        0.0746
      4 C          63.1444   85.8358   12.5051 C.3     1  UNL1        0.0383
      5 C          63.9141   86.5538   13.5738 C.3     1  UNL1        0.0691
      6 C          63.8567   88.0500   13.6625 C.2     1  UNL1        0.1201
      7 O          64.6264   88.7680   14.7313 O.2     1  UNL1       -0.5092
      8 C          63.0297   88.8283   12.6826 C.2     1  UNL1        0.0936
      9 H          65.1430   88.2819   15.3434 H       1  UNL1        0.2917
     10 C          63.2018   84.3395   12.4164 C.ar    1  UNL1       -0.0072
     11 C          63.3862   83.6737   11.0849 C.ar    1  UNL1        0.0537
     12 CL         63.5133   84.5042    9.8423 Cl      1  UNL1       -0.0826
     13 C          63.4435   82.1775   10.9961 C.ar    1  UNL1        0.0111
     14 C          63.3164   81.3469   12.2388 C.ar    1  UNL1        0.0008
     15 C          63.1320   82.0127   13.5702 C.ar    1  UNL1        0.0036
     16 C          63.0747   83.5090   13.6590 C.ar    1  UNL1        0.0683
     17 C          62.8902   84.1748   14.9904 C.3     1  UNL1        0.4183
     18 F          62.7058   84.8406   16.3218 F       1  UNL1       -0.1659
     19 F          61.4388   84.3926   14.6805 F       1  UNL1       -0.1659
     20 F          64.3416   83.9571   15.3004 F       1  UNL1       -0.1659
     21 S          62.9723   90.3246   12.7714 S.3     1  UNL1       -0.0806
     22 C          64.1720   91.1445   12.3991 C.ar    1  UNL1        0.0402
     23 C          65.2487   91.4009   13.4116 C.ar    1  UNL1        0.0073
     24 C          66.4484   92.2208   13.0393 C.ar    1  UNL1        0.0006
     25 C          66.5713   92.7843   11.6546 C.ar    1  UNL1        0.0009
     26 C          65.4947   92.5279   10.6422 C.ar    1  UNL1        0.0119
     27 C          64.2950   91.7080   11.0145 C.ar    1  UNL1        0.0636
     28 CL         63.2183   91.4516   10.0020 Cl      1  UNL1       -0.0817
@<TRIPOS>BOND
     1     1     2    2
     2     2     3    1
     3     3     4    1
     4     4    10    1
     5    10    11   ar
     6    11    12    1
     7    11    13   ar
     8    13    14   ar
     9    14    15   ar
    10    15    16   ar
    11    16    17    1
    12    17    18    1
    13    17    19    1
    14    17    20    1
    15     4     5    1
    16     5     6    1
    17     6     7    1
    18     6     8    2
    19     8    21    1
    20    21    22    1
    21    22    23   ar
    22    23    24   ar
    23    24    25   ar
    24    25    26   ar
    25    26    27   ar
    26    27    28    1
    27     8     2    1
    28    27    22   ar
    29    16    10   ar
    30     7     9    1
@<TRIPOS>MOLECULE
*****
 28 30 0 0 0
SMALL
GASTEIGER

@<TRIPOS>ATOM
      1 O          62.7830   86.3734   12.3176 O.2     1  UNL1       -0.2907
      2 C          62.7049   87.8579   12.1168 C.2     1  UNL1        0.1819
      3 C          63.6440   88.7650   12.8550 C.3     1  UNL1        0.0746
      4 C          63.5659   90.2495   12.6542 C.3     1  UNL1        0.0383
      5 C          62.5486   90.8267   11.7152 C.3     1  UNL1        0.0691
      6 C          61.6094   89.9196   10.9770 C.2     1  UNL1        0.1201
      7 O          60.5920   90.4969   10.0380 O.2     1  UNL1       -0.5092
      8 C          61.6875   88.4351   11.1778 C.2     1  UNL1        0.0936
      9 H          60.5431   91.4241    9.9126 H       1  UNL1        0.2917
     10 C          64.5051   91.1566   13.3925 C.ar    1  UNL1       -0.0072
     11 C          64.5832   91.0978   14.8893 C.ar    1  UNL1        0.0537
     12 CL         63.7220   90.1319   15.6478 Cl      1  UNL1       -0.0826
     13 C          65.5224   92.0049   15.6275 C.ar    1  UNL1        0.0111
     14 C          66.3836   92.9709   14.8689 C.ar    1  UNL1        0.0008
     15 C          66.3055   93.0297   13.3721 C.ar    1  UNL1        0.0036
     16 C          65.3663   92.1225   12.6339 C.ar    1  UNL1        0.0683
     17 C          65.2882   92.1813   11.1371 C.3     1  UNL1        0.4183
     18 F          65.2101   92.2401    9.6403 F       1  UNL1       -0.1659
     19 F          63.8995   92.7405   11.2315 F       1  UNL1       -0.1659
     20 F          66.6769   91.6222   11.0427 F       1  UNL1       -0.1659
     21 S          60.7483   87.5280   10.4396 S.3     1  UNL1       -0.0806
     22 C          61.2571   86.6773    9.3138 C.ar    1  UNL1        0.0402
     23 C          62.6684   86.1695    9.3360 C.ar    1  UNL1        0.0073
     24 C          63.1771   85.3187    8.2102 C.ar    1  UNL1        0.0006
     25 C          62.2746   84.9758    7.0622 C.ar    1  UNL1        0.0009
     26 C          60.8634   85.4836    7.0400 C.ar    1  UNL1        0.0119
     27 C          60.3546   86.3344    8.1658 C.ar    1  UNL1        0.0636
     28 CL         58.9433   86.8422    8.1436 Cl      1  UNL1       -0.0817
@<TRIPOS>BOND
     1     1     2    2
     2     2     3    1
     3     3     4    1
     4     4    10    1
     5    10    11   ar
     6    11    12    1
     7    11    13   ar
     8    13    14   ar
     9    14    15   ar
    10    15    16   ar
    11    16    17    1
    12    17    18    1
    13    17    19    1
    14    17    20    1
    15     4     5    1
    16     5     6    1
    17     6     7    1
    18     6     8    2
    19     8    21    1
    20    21    22    1
    21    22    23   ar
    22    23    24   ar
    23    24    25   ar
    24    25    26   ar
    25    26    27   ar
    26    27    28    1
    27     8     2    1
    28    27    22   ar
    29    16    10   ar
    30     7     9    1
@<TRIPOS>MOLECULE
*****
 28 30 0 0 0
SMALL
GASTEIGER

@<TRIPOS>ATOM
      1 O          64.3725   83.5582    9.1811 O.2     1  UNL1       -0.2907
      2 C          63.4258   84.4806    9.8902 C.2     1  UNL1        0.1819
      3 C          62.6340   85.4875    9.1097 C.3     1  UNL1        0.0746
      4 C          61.6872   86.4099    9.8188 C.3     1  UNL1        0.0383
      5 C          61.5322   86.3254   11.3084 C.3     1  UNL1        0.0691
      6 C          62.3240   85.3184   12.0888 C.2     1  UNL1        0.1201
      7 O          62.1690   85.2338   13.5784 O.2     1  UNL1       -0.5092
      8 C          63.2708   84.3960   11.3797 C.2     1  UNL1        0.0936
      9 H          61.5776   85.8100   14.0214 H       1  UNL1        0.2917
     10 C          60.8954   87.4169    9.0383 C.ar    1  UNL1       -0.0072
     11 C          60.0777   86.9778    7.8600 C.ar    1  UNL1        0.0537
     12 CL         60.0518   85.5317    7.4622 Cl      1  UNL1       -0.0826
     13 C          59.2859   87.9847    7.0795 C.ar    1  UNL1        0.0111
     14 C          59.3119   89.4308    7.4773 C.ar    1  UNL1        0.0008
     15 C          60.1296   89.8699    8.6556 C.ar    1  UNL1        0.0036
     16 C          60.9214   88.8629    9.4362 C.ar    1  UNL1        0.0683
     17 C          61.7391   89.3020   10.6145 C.3     1  UNL1        0.4183
     18 F          62.5568   89.7412   11.7929 F       1  UNL1       -0.1659
     19 F          60.5035   89.3213   11.4648 F       1  UNL1       -0.1659
     20 F          62.9747   89.2828    9.7642 F       1  UNL1       -0.1659
     21 S          64.0625   83.3890   12.1602 S.3     1  UNL1       -0.0806
     22 C          63.4497   82.0676   12.5184 C.ar    1  UNL1        0.0402
     23 C          63.1770   81.0526   11.4481 C.ar    1  UNL1        0.0073
     24 C          62.5642   79.7312   11.8063 C.ar    1  UNL1        0.0006
     25 C          62.2241   79.4248   13.2348 C.ar    1  UNL1        0.0009
     26 C          62.4968   80.4398   14.3050 C.ar    1  UNL1        0.0119
     27 C          63.1097   81.7612   13.9468 C.ar    1  UNL1        0.0636
     28 CL         63.3824   82.7762   15.0171 Cl      1  UNL1       -0.0817
@<TRIPOS>BOND
     1     1     2    2
     2     2     3    1
     3     3     4    1
     4     4    10    1
     5    10    11   ar
     6    11    12    1
     7    11    13   ar
     8    13    14   ar
     9    14    15   ar
    10    15    16   ar
    11    16    17    1
    12    17    18    1
    13    17    19    1
    14    17    20    1
    15     4     5    1
    16     5     6    1
    17     6     7    1
    18     6     8    2
    19     8    21    1
    20    21    22    1
    21    22    23   ar
    22    23    24   ar
    23    24    25   ar
    24    25    26   ar
    25    26    27   ar
    26    27    28    1
    27     8     2    1
    28    27    22   ar
    29    16    10   ar
    30     7     9    1
@<TRIPOS>MOLECULE
*****
 28 30 0 0 0
SMALL
GASTEIGER

@<TRIPOS>ATOM
      1 O          61.4601   89.1364   10.5597 O.2     1  UNL1       -0.2907
      2 C          62.2297   88.3066   11.5441 C.2     1  UNL1        0.1819
      3 C          62.2019   86.8100   11.4469 C.3     1  UNL1        0.0746
      4 C          62.9715   85.9801   12.4313 C.3     1  UNL1        0.0383
      5 C          63.7689   86.6468   13.5129 C.3     1  UNL1        0.0691
      6 C          63.7966   88.1434   13.6100 C.2     1  UNL1        0.1201
      7 O          64.5940   88.8101   14.6916 O.2     1  UNL1       -0.5092
      8 C          63.0270   88.9732   12.6256 C.2     1  UNL1        0.0936
      9 H          65.0747   88.2917   15.3065 H       1  UNL1        0.2917
     10 C          62.9438   84.4835   12.3342 C.ar    1  UNL1       -0.0072
     11 C          62.7638   83.6548   13.5714 C.ar    1  UNL1        0.0537
     12 CL         62.6115   84.3228   14.9059 Cl      1  UNL1       -0.0826
     13 C          62.7360   82.1582   13.4743 C.ar    1  UNL1        0.0111
     14 C          62.8882   81.4903   12.1399 C.ar    1  UNL1        0.0008
     15 C          63.0682   82.3189   10.9026 C.ar    1  UNL1        0.0036
     16 C          63.0960   83.8156   10.9997 C.ar    1  UNL1        0.0683
     17 C          63.2760   84.6443    9.7624 C.3     1  UNL1        0.4183
     18 F          63.4560   85.4729    8.5252 F       1  UNL1       -0.1659
     19 F          61.8126   84.9733    9.7699 F       1  UNL1       -0.1659
     20 F          64.7394   84.3152    9.7550 F       1  UNL1       -0.1659
     21 S          63.0548   90.4699   12.7228 S.3     1  UNL1       -0.0806
     22 C          64.2925   91.2237   12.3356 C.ar    1  UNL1        0.0402
     23 C          65.3916   91.4254   13.3363 C.ar    1  UNL1        0.0073
     24 C          66.6293   92.1792   12.9491 C.ar    1  UNL1        0.0006
     25 C          66.7678   92.7314   11.5613 C.ar    1  UNL1        0.0009
     26 C          65.6687   92.5298   10.5607 C.ar    1  UNL1        0.0119
     27 C          64.4310   91.7759   10.9479 C.ar    1  UNL1        0.0636
     28 CL         63.3318   91.5743    9.9472 Cl      1  UNL1       -0.0817
@<TRIPOS>BOND
     1     1     2    2
     2     2     3    1
     3     3     4    1
     4     4    10    1
     5    10    11   ar
     6    11    12    1
     7    11    13   ar
     8    13    14   ar
     9    14    15   ar
    10    15    16   ar
    11    16    17    1
    12    17    18    1
    13    17    19    1
    14    17    20    1
    15     4     5    1
    16     5     6    1
    17     6     7    1
    18     6     8    2
    19     8    21    1
    20    21    22    1
    21    22    23   ar
    22    23    24   ar
    23    24    25   ar
    24    25    26   ar
    25    26    27   ar
    26    27    28    1
    27     8     2    1
    28    27    22   ar
    29    16    10   ar
    30     7     9    1
@<TRIPOS>MOLECULE
*****
 28 30 0 0 0
SMALL
GASTEIGER

@<TRIPOS>ATOM
      1 O          60.0887   90.3762   10.6082 O.2     1  UNL1       -0.2907
      2 C          61.3336   89.9274   11.3145 C.2     1  UNL1        0.1819
      3 C          62.3540   90.9368   11.7501 C.3     1  UNL1        0.0746
      4 C          63.5989   90.4880   12.4563 C.3     1  UNL1        0.0383
      5 C          63.8234   89.0298   12.7269 C.3     1  UNL1        0.0691
      6 C          62.8030   88.0204   12.2913 C.2     1  UNL1        0.1201
      7 O          63.0275   86.5622   12.5619 O.2     1  UNL1       -0.5092
      8 C          61.5581   88.4692   11.5850 C.2     1  UNL1        0.0936
      9 H          63.8051   86.2818   13.0030 H       1  UNL1        0.2917
     10 C          64.6194   91.4975   12.8920 C.ar    1  UNL1       -0.0072
     11 C          65.2449   92.4148   11.8834 C.ar    1  UNL1        0.0537
     12 CL         64.8500   92.3227   10.4392 Cl      1  UNL1       -0.0826
     13 C          66.2653   93.4242   12.3190 C.ar    1  UNL1        0.0111
     14 C          66.6602   93.5164   13.7632 C.ar    1  UNL1        0.0008
     15 C          66.0347   92.5991   14.7717 C.ar    1  UNL1        0.0036
     16 C          65.0142   91.5896   14.3361 C.ar    1  UNL1        0.0683
     17 C          64.3887   90.6723   15.3447 C.3     1  UNL1        0.4183
     18 F          63.7631   89.7549   16.3532 F       1  UNL1       -0.1659
     19 F          65.3641   89.5959   14.9706 F       1  UNL1       -0.1659
     20 F          63.4133   91.7487   15.7187 F       1  UNL1       -0.1659
     21 S          60.5376   87.4597   11.1494 S.3     1  UNL1       -0.0806
     22 C          60.4695   87.0343    9.7126 C.ar    1  UNL1        0.0402
     23 C          59.4449   87.6391    8.7991 C.ar    1  UNL1        0.0073
     24 C          59.3767   87.2136    7.3623 C.ar    1  UNL1        0.0006
     25 C          60.3331   86.1833    6.8391 C.ar    1  UNL1        0.0009
     26 C          61.3577   85.5785    7.7526 C.ar    1  UNL1        0.0119
     27 C          61.4258   86.0040    9.1893 C.ar    1  UNL1        0.0636
     28 CL         62.4504   85.3992   10.1029 Cl      1  UNL1       -0.0817
@<TRIPOS>BOND
     1     1     2    2
     2     2     3    1
     3     3     4    1
     4     4    10    1
     5    10    11   ar
     6    11    12    1
     7    11    13   ar
     8    13    14   ar
     9    14    15   ar
    10    15    16   ar
    11    16    17    1
    12    17    18    1
    13    17    19    1
    14    17    20    1
    15     4     5    1
    16     5     6    1
    17     6     7    1
    18     6     8    2
    19     8    21    1
    20    21    22    1
    21    22    23   ar
    22    23    24   ar
    23    24    25   ar
    24    25    26   ar
    25    26    27   ar
    26    27    28    1
    27     8     2    1
    28    27    22   ar
    29    16    10   ar
    30     7     9    1
@<TRIPOS>MOLECULE
*****
 28 30 0 0 0
SMALL
GASTEIGER

@<TRIPOS>ATOM
      1 O          61.7295   88.3838   10.6472 O.2     1  UNL1       -0.2907
      2 C          62.4860   87.5688   11.6539 C.2     1  UNL1        0.1819
      3 C          62.3864   86.0722   11.6345 C.3     1  UNL1        0.0746
      4 C          63.1429   85.2571   12.6412 C.3     1  UNL1        0.0383
      5 C          63.9989   85.9386   13.6673 C.3     1  UNL1        0.0691
      6 C          64.0984   87.4351   13.6866 C.2     1  UNL1        0.1201
      7 O          64.9544   88.1167   14.7128 O.2     1  UNL1       -0.5092
      8 C          63.3419   88.2502   12.6800 C.2     1  UNL1        0.0936
      9 H          65.4269   87.6075   15.3416 H       1  UNL1        0.2917
     10 C          63.0433   83.7605   12.6218 C.ar    1  UNL1       -0.0072
     11 C          63.2529   83.0115   11.3392 C.ar    1  UNL1        0.0537
     12 CL         63.5622   83.7591   10.0760 Cl      1  UNL1       -0.0826
     13 C          63.1534   81.5150   11.3197 C.ar    1  UNL1        0.0111
     14 C          62.8442   80.7674   12.5829 C.ar    1  UNL1        0.0008
     15 C          62.6345   81.5164   13.8655 C.ar    1  UNL1        0.0036
     16 C          62.7341   83.0130   13.8849 C.ar    1  UNL1        0.0683
     17 C          62.5244   83.7620   15.1675 C.3     1  UNL1        0.4183
     18 F          62.3148   84.5110   16.4501 F       1  UNL1       -0.1659
     19 F          63.8693   83.3080   15.6525 F       1  UNL1       -0.1659
     20 F          61.1796   84.2160   14.6825 F       1  UNL1       -0.1659
     21 S          63.4415   89.7468   12.6994 S.3     1  UNL1       -0.0806
     22 C          63.8643   90.4541   13.9527 C.ar    1  UNL1        0.0402
     23 C          63.1469   90.1874   15.2428 C.ar    1  UNL1        0.0073
     24 C          63.5697   90.8947   16.4962 C.ar    1  UNL1        0.0006
     25 C          64.7099   91.8687   16.4595 C.ar    1  UNL1        0.0009
     26 C          65.4273   92.1354   15.1695 C.ar    1  UNL1        0.0119
     27 C          65.0045   91.4281   13.9161 C.ar    1  UNL1        0.0636
     28 CL         65.7219   91.6948   12.6260 Cl      1  UNL1       -0.0817
@<TRIPOS>BOND
     1     1     2    2
     2     2     3    1
     3     3     4    1
     4     4    10    1
     5    10    11   ar
     6    11    12    1
     7    11    13   ar
     8    13    14   ar
     9    14    15   ar
    10    15    16   ar
    11    16    17    1
    12    17    18    1
    13    17    19    1
    14    17    20    1
    15     4     5    1
    16     5     6    1
    17     6     7    1
    18     6     8    2
    19     8    21    1
    20    21    22    1
    21    22    23   ar
    22    23    24   ar
    23    24    25   ar
    24    25    26   ar
    25    26    27   ar
    26    27    28    1
    27     8     2    1
    28    27    22   ar
    29    16    10   ar
    30     7     9    1
@<TRIPOS>MOLECULE
*****
 28 30 0 0 0
SMALL
GASTEIGER

@<TRIPOS>ATOM
      1 O          57.6225   96.7489   -0.9464 O.2     1  UNL1       -0.2907
      2 C          58.1456   95.3560   -0.7558 C.2     1  UNL1        0.1819
      3 C          59.5431   95.1417   -0.2548 C.3     1  UNL1        0.0746
      4 C          60.0661   93.7488   -0.0642 C.3     1  UNL1        0.0383
      5 C          59.1917   92.5703   -0.3746 C.3     1  UNL1        0.0691
      6 C          57.7942   92.7846   -0.8756 C.2     1  UNL1        0.1201
      7 O          56.9197   91.6060   -1.1860 O.2     1  UNL1       -0.5092
      8 C          57.2712   94.1775   -1.0662 C.2     1  UNL1        0.0936
      9 H          57.2465   90.7359   -1.0670 H       1  UNL1        0.2917
     10 C          61.4637   93.5345    0.4369 C.ar    1  UNL1       -0.0072
     11 C          61.6946   93.1117    1.8574 C.ar    1  UNL1        0.0537
     12 CL         60.5278   92.9031    2.7769 Cl      1  UNL1       -0.0826
     13 C          63.0920   92.8974    2.3585 C.ar    1  UNL1        0.0111
     14 C          64.2587   93.1059    1.4390 C.ar    1  UNL1        0.0008
     15 C          64.0279   93.5287    0.0185 C.ar    1  UNL1        0.0036
     16 C          62.6303   93.7430   -0.4826 C.ar    1  UNL1        0.0683
     17 C          62.3995   94.1659   -1.9031 C.3     1  UNL1        0.4183
     18 F          62.1686   94.5887   -3.3236 F       1  UNL1       -0.1659
     19 F          62.5781   95.6010   -1.5050 F       1  UNL1       -0.1659
     20 F          62.2208   92.7308   -2.3013 F       1  UNL1       -0.1659
     21 S          55.8736   94.3918   -1.5673 S.3     1  UNL1       -0.0806
     22 C          55.6256   94.5991   -3.0320 C.ar    1  UNL1        0.0402
     23 C          56.2661   93.6885   -4.0374 C.ar    1  UNL1        0.0073
     24 C          56.0181   93.8959   -5.5022 C.ar    1  UNL1        0.0006
     25 C          55.1295   95.0137   -5.9615 C.ar    1  UNL1        0.0009
     26 C          54.4891   95.9242   -4.9561 C.ar    1  UNL1        0.0119
     27 C          54.7371   95.7169   -3.4914 C.ar    1  UNL1        0.0636
     28 CL         54.0966   96.6274   -2.4860 Cl      1  UNL1       -0.0817
@<TRIPOS>BOND
     1     1     2    2
     2     2     3    1
     3     3     4    1
     4     4    10    1
     5    10    11   ar
     6    11    12    1
     7    11    13   ar
     8    13    14   ar
     9    14    15   ar
    10    15    16   ar
    11    16    17    1
    12    17    18    1
    13    17    19    1
    14    17    20    1
    15     4     5    1
    16     5     6    1
    17     6     7    1
    18     6     8    2
    19     8    21    1
    20    21    22    1
    21    22    23   ar
    22    23    24   ar
    23    24    25   ar
    24    25    26   ar
    25    26    27   ar
    26    27    28    1
    27     8     2    1
    28    27    22   ar
    29    16    10   ar
    30     7     9    1
