@<TRIPOS>MOLECULE
*****
 56 61 0 0 0
SMALL
GASTEIGER

@<TRIPOS>ATOM
      1 C          62.0072   90.7469   10.8726 C.3     1  UNL1        0.1021
      2 N          62.3136   86.2592   11.0028 N.3     1  UNL1       -0.2663
      3 C          63.2331   87.0984   11.8397 C.3     1  UNL1        0.0899
      4 C          63.1309   88.5942   11.7963 C.3     1  UNL1        0.0901
      5 N          62.1094   89.2510   10.9160 N.3     1  UNL1       -0.2621
      6 C          61.1898   88.4119   10.0790 C.3     1  UNL1        0.1510
      7 C          61.2920   86.9160   10.1224 C.3     1  UNL1        0.0980
      8 C          60.1682   89.0686    9.1987 C.2     1  UNL1        0.2386
      9 O          59.4811   90.3221    9.6533 O.2     1  UNL1       -0.2736
     10 N          59.8337   88.4719    7.8637 N.am    1  UNL1       -0.2961
     11 H          60.2847   87.6492    7.5653 H       1  UNL1        0.1497
     12 C          58.8122   89.1287    6.9834 C.3     1  UNL1        0.1939
     13 C          59.2417   90.1369    5.9593 C.3     1  UNL1        0.4154
     14 F          59.6712   91.1452    4.9351 F       1  UNL1       -0.1682
     15 F          57.8065   90.4927    5.7076 F       1  UNL1       -0.1682
     16 F          60.6770   89.7811    6.2110 F       1  UNL1       -0.1682
     17 C          62.8278   84.7496    9.6040 C.3     1  UNL1        0.0238
     18 C          62.4157   84.7633   11.0462 C.3     1  UNL1        0.0969
     19 C          62.0037   84.7771   12.4885 C.3     1  UNL1        0.0238
     20 C          62.5179   83.2674   11.0897 C.ar    1  UNL1        0.1356
     21 C          62.3789   82.4093   12.3122 C.ar    1  UNL1        0.0388
     22 C          62.5521   80.9785   11.8962 C.ar    1  UNL1        0.0564
     23 C          62.5175   79.6962   12.6735 C.ar    1  UNL1        0.1020
     24 N          62.7290   78.3877   11.9714 N.ar    1  UNL1       -0.2421
     25 C          62.9749   78.3615   10.4919 C.ar    1  UNL1        0.1020
     26 C          63.0094   79.6439    9.7146 C.ar    1  UNL1        0.0581
     27 C          62.7980   80.9524   10.4167 C.ar    1  UNL1        0.1479
     28 O          62.7769   82.3670    9.9183 O.2     1  UNL1       -0.4564
     29 C          63.2268   91.5889   11.1040 C.3     1  UNL1        0.1269
     30 O          64.0239   92.0911    9.9369 O.3     1  UNL1       -0.3830
     31 H          63.6178   91.7834    9.1115 H       1  UNL1        0.2104
     32 C          63.6491   91.9288   12.5026 C.3     1  UNL1        0.0401
     33 C          64.4686   90.9548   13.2962 C.3     1  UNL1        0.0833
     34 C          63.7924   89.9691   14.2024 C.2     1  UNL1        0.2226
     35 O          62.3131   90.0567   14.4351 O.2     1  UNL1       -0.2751
     36 N          64.5954   88.8960   14.8758 N.am    1  UNL1       -0.2999
     37 H          65.5662   88.8386   14.7230 H       1  UNL1        0.1498
     38 C          63.9191   87.9103   15.7820 C.3     1  UNL1        0.1278
     39 C          64.0570   86.4388   15.5258 C.ar    1  UNL1        0.0320
     40 C          64.8711   85.9530   14.3633 C.ar    1  UNL1        0.0004
     41 C          65.0089   84.4815   14.1071 C.ar    1  UNL1       -0.0001
     42 C          64.3327   83.4958   15.0133 C.ar    1  UNL1        0.0031
     43 C          63.5186   83.9816   16.1757 C.ar    1  UNL1        0.0366
     44 C          63.3807   85.4532   16.4320 C.ar    1  UNL1        0.1362
     45 O          62.5667   85.9390   17.5944 O.3     1  UNL1       -0.4730
     46 C          62.4288   87.4105   17.8506 C.3     1  UNL1        0.2364
     47 C          63.1051   88.3962   16.9444 C.3     1  UNL1        0.1762
     48 O          62.9672   89.8677   17.2007 O.3     1  UNL1       -0.3788
     49 H          62.4129   90.0089   17.9841 H       1  UNL1        0.2106
     50 C          65.9644   90.9664   13.1836 C.3     1  UNL1        0.0355
     51 C          66.7869   91.7075   14.1956 C.ar    1  UNL1       -0.0217
     52 C          66.1498   92.2099   15.4572 C.ar    1  UNL1       -0.0043
     53 C          66.9724   92.9510   16.4692 C.ar    1  UNL1       -0.0003
     54 C          68.4321   93.1897   16.2196 C.ar    1  UNL1       -0.0000
     55 C          69.0692   92.6872   14.9581 C.ar    1  UNL1       -0.0003
     56 C          68.2467   91.9461   13.9460 C.ar    1  UNL1       -0.0043
@<TRIPOS>BOND
     1    17    18    1
     2    18    19    1
     3    18    20    1
     4    20    21   ar
     5    21    22   ar
     6    22    23   ar
     7    23    24   ar
     8    24    25   ar
     9    25    26   ar
    10    26    27   ar
    11    27    28   ar
    12    18     2    1
    13     2     3    1
    14     3     4    1
    15     4     5    1
    16     5     1    1
    17     1    29    1
    18    29    30    1
    19    29    32    1
    20    33    32    1
    21    33    50    1
    22    50    51    1
    23    51    52   ar
    24    52    53   ar
    25    53    54   ar
    26    54    55   ar
    27    55    56   ar
    28    33    34    1
    29    34    35    2
    30    34    36   am
    31    38    36    1
    32    38    39    1
    33    39    40   ar
    34    40    41   ar
    35    41    42   ar
    36    42    43   ar
    37    43    44   ar
    38    44    45    1
    39    45    46    1
    40    46    47    1
    41    47    48    1
    42     5     6    1
    43     6     8    1
    44     8     9    2
    45     8    10   am
    46    10    12    1
    47    12    13    1
    48    13    14    1
    49    13    15    1
    50    13    16    1
    51     6     7    1
    52    28    20   ar
    53     7     2    1
    54    27    22   ar
    55    56    51   ar
    56    47    38    1
    57    44    39   ar
    58    30    31    1
    59    36    37    1
    60    48    49    1
    61    10    11    1
@<TRIPOS>MOLECULE
*****
 56 61 0 0 0
SMALL
GASTEIGER

@<TRIPOS>ATOM
      1 C          63.0597   89.9128   13.0190 C.3     1  UNL1        0.1021
      2 N          62.9634   85.4869   12.2118 N.3     1  UNL1       -0.2663
      3 C          63.5300   86.0019   13.5017 C.3     1  UNL1        0.0899
      4 C          63.5621   87.4772   13.7707 C.3     1  UNL1        0.0901
      5 N          63.0276   88.4375   12.7499 N.3     1  UNL1       -0.2621
      6 C          62.4609   87.9225   11.4600 C.3     1  UNL1        0.1510
      7 C          62.4288   86.4472   11.1910 C.3     1  UNL1        0.0980
      8 C          61.9264   88.8828   10.4393 C.2     1  UNL1        0.2386
      9 O          62.6294   90.1850   10.1941 O.2     1  UNL1       -0.2736
     10 N          60.6888   88.5410    9.6636 N.am    1  UNL1       -0.2961
     11 H          60.2273   87.6864    9.8246 H       1  UNL1        0.1497
     12 C          60.1542   89.5013    8.6429 C.3     1  UNL1        0.1939
     13 C          59.4726   88.9839    7.4110 C.3     1  UNL1        0.4154
     14 F          58.7909   88.4665    6.1790 F       1  UNL1       -0.1682
     15 F          59.9514   90.1804    6.6435 F       1  UNL1       -0.1682
     16 F          58.9938   87.7874    8.1785 F       1  UNL1       -0.1682
     17 C          62.7232   83.7494   13.4050 C.3     1  UNL1        0.0238
     18 C          62.9313   84.0115   11.9428 C.3     1  UNL1        0.0969
     19 C          63.1395   84.2737   10.4806 C.3     1  UNL1        0.0238
     20 C          62.8992   82.5362   11.6737 C.ar    1  UNL1        0.1356
     21 C          62.6456   81.4603   12.6878 C.ar    1  UNL1        0.0388
     22 C          62.7048   80.1369   11.9842 C.ar    1  UNL1        0.0564
     23 C          62.5319   78.7303   12.4756 C.ar    1  UNL1        0.1020
     24 N          62.6492   77.5817   11.5182 N.ar    1  UNL1       -0.2421
     25 C          62.9394   77.8396   10.0693 C.ar    1  UNL1        0.1020
     26 C          63.1123   79.2462    9.5778 C.ar    1  UNL1        0.0581
     27 C          62.9950   80.3948   10.5353 C.ar    1  UNL1        0.1479
     28 O          63.1151   81.8777   10.3434 O.2     1  UNL1       -0.4564
     29 C          63.7867   90.4405   14.2202 C.3     1  UNL1        0.1269
     30 O          63.0556   90.6293   15.5162 O.3     1  UNL1       -0.3830
     31 H          62.1288   90.3650   15.4061 H       1  UNL1        0.2104
     32 C          65.2448   90.7793   14.1254 C.3     1  UNL1        0.0401
     33 C          65.6775   92.2129   14.0374 C.3     1  UNL1        0.0833
     34 C          65.7620   92.8902   12.7017 C.2     1  UNL1        0.2226
     35 O          65.0339   92.3163   11.5224 O.2     1  UNL1       -0.2751
     36 N          66.5744   94.1413   12.5453 N.am    1  UNL1       -0.2999
     37 H          67.0522   94.5180   13.3193 H       1  UNL1        0.1498
     38 C          66.6588   94.8187   11.2096 C.3     1  UNL1        0.1278
     39 C          67.3562   94.1408   10.0677 C.ar    1  UNL1        0.0320
     40 C          67.9693   92.7855   10.2614 C.ar    1  UNL1        0.0004
     41 C          68.6667   92.1076    9.1195 C.ar    1  UNL1       -0.0001
     42 C          68.7511   92.7850    7.7838 C.ar    1  UNL1        0.0031
     43 C          68.1381   94.1402    7.5900 C.ar    1  UNL1        0.0366
     44 C          67.4407   94.8181    8.7320 C.ar    1  UNL1        0.1362
     45 O          66.8277   96.1734    8.5382 O.3     1  UNL1       -0.4730
     46 C          66.1303   96.8512    9.6801 C.3     1  UNL1        0.2364
     47 C          66.0458   96.1739   11.0158 C.3     1  UNL1        0.1762
     48 O          65.3484   96.8519   12.1578 O.3     1  UNL1       -0.3788
     49 H          65.0120   97.7135   11.8655 H       1  UNL1        0.2106
     50 C          66.0258   92.9691   15.2852 C.3     1  UNL1        0.0355
     51 C          67.4584   93.0926   15.7121 C.ar    1  UNL1       -0.0217
     52 C          68.1926   91.8918   16.2310 C.ar    1  UNL1       -0.0043
     53 C          69.6252   92.0153   16.6579 C.ar    1  UNL1       -0.0003
     54 C          70.3238   93.3395   16.5659 C.ar    1  UNL1       -0.0000
     55 C          69.5897   94.5402   16.0471 C.ar    1  UNL1       -0.0003
     56 C          68.1570   94.4168   15.6201 C.ar    1  UNL1       -0.0043
@<TRIPOS>BOND
     1    17    18    1
     2    18    19    1
     3    18    20    1
     4    20    21   ar
     5    21    22   ar
     6    22    23   ar
     7    23    24   ar
     8    24    25   ar
     9    25    26   ar
    10    26    27   ar
    11    27    28   ar
    12    18     2    1
    13     2     3    1
    14     3     4    1
    15     4     5    1
    16     5     1    1
    17     1    29    1
    18    29    30    1
    19    29    32    1
    20    33    32    1
    21    33    50    1
    22    50    51    1
    23    51    52   ar
    24    52    53   ar
    25    53    54   ar
    26    54    55   ar
    27    55    56   ar
    28    33    34    1
    29    34    35    2
    30    34    36   am
    31    38    36    1
    32    38    39    1
    33    39    40   ar
    34    40    41   ar
    35    41    42   ar
    36    42    43   ar
    37    43    44   ar
    38    44    45    1
    39    45    46    1
    40    46    47    1
    41    47    48    1
    42     5     6    1
    43     6     8    1
    44     8     9    2
    45     8    10   am
    46    10    12    1
    47    12    13    1
    48    13    14    1
    49    13    15    1
    50    13    16    1
    51     6     7    1
    52    28    20   ar
    53     7     2    1
    54    27    22   ar
    55    56    51   ar
    56    47    38    1
    57    44    39   ar
    58    30    31    1
    59    36    37    1
    60    48    49    1
    61    10    11    1
@<TRIPOS>MOLECULE
*****
 56 61 0 0 0
SMALL
GASTEIGER

@<TRIPOS>ATOM
      1 C          63.0298   89.9034   13.0158 C.3     1  UNL1        0.1021
      2 N          62.9448   85.4747   12.2228 N.3     1  UNL1       -0.2663
      3 C          63.5333   85.9968   13.4999 C.3     1  UNL1        0.0899
      4 C          63.5617   87.4730   13.7642 C.3     1  UNL1        0.0901
      5 N          63.0015   88.4272   12.7515 N.3     1  UNL1       -0.2621
      6 C          62.4129   87.9051   11.4743 C.3     1  UNL1        0.1510
      7 C          62.3845   86.4289   11.2100 C.3     1  UNL1        0.0980
      8 C          61.8527   88.8593   10.4616 C.2     1  UNL1        0.2386
      9 O          62.6429   90.0663   10.0508 O.2     1  UNL1       -0.2736
     10 N          60.5022   88.6066    9.8596 N.am    1  UNL1       -0.2961
     11 H          59.9835   87.8144   10.1292 H       1  UNL1        0.1497
     12 C          59.9420   89.5607    8.8469 C.3     1  UNL1        0.1939
     13 C          59.5792   89.0717    7.4760 C.3     1  UNL1        0.4154
     14 F          59.2164   88.5826    6.1052 F       1  UNL1       -0.1682
     15 F          60.0768   87.7024    7.8328 F       1  UNL1       -0.1682
     16 F          59.0816   90.4410    7.1193 F       1  UNL1       -0.1682
     17 C          62.5839   83.7468   13.3993 C.3     1  UNL1        0.0238
     18 C          62.9164   83.9985   11.9584 C.3     1  UNL1        0.0969
     19 C          63.2489   84.2501   10.5175 C.3     1  UNL1        0.0238
     20 C          62.8881   82.5222   11.6940 C.ar    1  UNL1        0.1356
     21 C          62.6619   81.4477   12.7160 C.ar    1  UNL1        0.0388
     22 C          62.7150   80.1226   12.0148 C.ar    1  UNL1        0.0564
     23 C          62.5610   78.7164   12.5135 C.ar    1  UNL1        0.1020
     24 N          62.6659   77.5658   11.5570 N.ar    1  UNL1       -0.2421
     25 C          62.9248   77.8214   10.1018 C.ar    1  UNL1        0.1020
     26 C          63.0788   79.2276    9.6031 C.ar    1  UNL1        0.0581
     27 C          62.9739   80.3783   10.5596 C.ar    1  UNL1        0.1479
     28 O          63.0809   81.8613   10.3614 O.2     1  UNL1       -0.4564
     29 C          63.7490   90.4361   14.2196 C.3     1  UNL1        0.1269
     30 O          62.9900   90.7203   15.4818 O.3     1  UNL1       -0.3830
     31 H          62.0530   90.5065   15.3507 H       1  UNL1        0.2104
     32 C          65.2271   90.6847   14.1611 C.3     1  UNL1        0.0401
     33 C          65.7453   92.0394   13.7788 C.3     1  UNL1        0.0833
     34 C          65.9676   92.3772   12.3343 C.2     1  UNL1        0.2226
     35 O          64.9649   91.9536   11.3021 O.2     1  UNL1       -0.2751
     36 N          67.1925   93.1384   11.9220 N.am    1  UNL1       -0.2999
     37 H          67.8505   93.4164   12.5994 H       1  UNL1        0.1498
     38 C          67.4148   93.4762   10.4775 C.3     1  UNL1        0.1278
     39 C          66.6529   94.6027    9.8448 C.ar    1  UNL1        0.0320
     40 C          65.6686   95.3916   10.6566 C.ar    1  UNL1        0.0004
     41 C          64.9067   96.5182   10.0240 C.ar    1  UNL1       -0.0001
     42 C          65.1291   96.8559    8.5795 C.ar    1  UNL1        0.0031
     43 C          66.1133   96.0671    7.7677 C.ar    1  UNL1        0.0366
     44 C          66.8752   94.9405    8.4004 C.ar    1  UNL1        0.1362
     45 O          67.8594   94.1517    7.5886 O.3     1  UNL1       -0.4730
     46 C          68.6213   93.0251    8.2213 C.3     1  UNL1        0.2364
     47 C          68.3990   92.6874    9.6657 C.3     1  UNL1        0.1762
     48 O          69.1609   91.5607   10.2984 O.3     1  UNL1       -0.3788
     49 H          69.7499   91.1591    9.6406 H       1  UNL1        0.2106
     50 C          66.0411   93.0565   14.8410 C.3     1  UNL1        0.0355
     51 C          67.4141   93.1382   15.4394 C.ar    1  UNL1       -0.0217
     52 C          68.1509   94.4448   15.4505 C.ar    1  UNL1       -0.0043
     53 C          69.5239   94.5266   16.0489 C.ar    1  UNL1       -0.0003
     54 C          70.1602   93.3018   16.6362 C.ar    1  UNL1       -0.0000
     55 C          69.4235   91.9953   16.6251 C.ar    1  UNL1       -0.0003
     56 C          68.0505   91.9134   16.0267 C.ar    1  UNL1       -0.0043
@<TRIPOS>BOND
     1    17    18    1
     2    18    19    1
     3    18    20    1
     4    20    21   ar
     5    21    22   ar
     6    22    23   ar
     7    23    24   ar
     8    24    25   ar
     9    25    26   ar
    10    26    27   ar
    11    27    28   ar
    12    18     2    1
    13     2     3    1
    14     3     4    1
    15     4     5    1
    16     5     1    1
    17     1    29    1
    18    29    30    1
    19    29    32    1
    20    33    32    1
    21    33    50    1
    22    50    51    1
    23    51    52   ar
    24    52    53   ar
    25    53    54   ar
    26    54    55   ar
    27    55    56   ar
    28    33    34    1
    29    34    35    2
    30    34    36   am
    31    38    36    1
    32    38    39    1
    33    39    40   ar
    34    40    41   ar
    35    41    42   ar
    36    42    43   ar
    37    43    44   ar
    38    44    45    1
    39    45    46    1
    40    46    47    1
    41    47    48    1
    42     5     6    1
    43     6     8    1
    44     8     9    2
    45     8    10   am
    46    10    12    1
    47    12    13    1
    48    13    14    1
    49    13    15    1
    50    13    16    1
    51     6     7    1
    52    28    20   ar
    53     7     2    1
    54    27    22   ar
    55    56    51   ar
    56    47    38    1
    57    44    39   ar
    58    30    31    1
    59    36    37    1
    60    48    49    1
    61    10    11    1
@<TRIPOS>MOLECULE
*****
 56 61 0 0 0
SMALL
GASTEIGER

@<TRIPOS>ATOM
      1 C          59.7562   87.1857    9.0622 C.3     1  UNL1        0.1021
      2 N          59.7287   90.3573    5.8701 N.3     1  UNL1       -0.2663
      3 C          59.4850   88.9231    5.5045 C.3     1  UNL1        0.0899
      4 C          59.4942   87.8659    6.5685 C.3     1  UNL1        0.0901
      5 N          59.7470   88.2429    7.9982 N.3     1  UNL1       -0.2621
      6 C          59.9907   89.6771    8.3638 C.3     1  UNL1        0.1510
      7 C          59.9816   90.7343    7.2998 C.3     1  UNL1        0.0980
      8 C          60.2436   90.0541    9.7935 C.2     1  UNL1        0.2386
      9 O          61.4849   90.8118   10.1610 O.2     1  UNL1       -0.2736
     10 N          59.2552   89.6733   10.8556 N.am    1  UNL1       -0.2961
     11 H          58.4405   89.1760   10.6144 H       1  UNL1        0.1497
     12 C          59.5080   90.0503   12.2853 C.3     1  UNL1        0.1939
     13 C          58.9053   89.2380   13.3929 C.3     1  UNL1        0.4154
     14 F          58.3026   88.4256   14.5006 F       1  UNL1       -0.1682
     15 F          60.1441   89.4391   14.2144 F       1  UNL1       -0.1682
     16 F          57.6666   89.0368   12.5713 F       1  UNL1       -0.1682
     17 C          61.1950   91.2294    4.6094 C.3     1  UNL1        0.0238
     18 C          59.7195   91.4145    4.8060 C.3     1  UNL1        0.0969
     19 C          58.2440   91.5997    5.0027 C.3     1  UNL1        0.0238
     20 C          59.7104   92.4717    3.7420 C.ar    1  UNL1        0.1356
     21 C          59.3636   92.2656    2.2972 C.ar    1  UNL1        0.0388
     22 C          59.4853   93.5872    1.5982 C.ar    1  UNL1        0.0564
     23 C          59.2664   93.9913    0.1703 C.ar    1  UNL1        0.1020
     24 N          59.4694   95.4183   -0.2448 N.ar    1  UNL1       -0.2421
     25 C          59.8914   96.4412    0.7679 C.ar    1  UNL1        0.1020
     26 C          60.1103   96.0371    2.1958 C.ar    1  UNL1        0.0581
     27 C          59.9073   94.6101    2.6109 C.ar    1  UNL1        0.1479
     28 O          60.0464   93.9207    3.9358 O.2     1  UNL1       -0.4564
     29 C          61.0450   86.5240    9.4510 C.3     1  UNL1        0.1269
     30 O          61.2970   85.0939    9.0752 O.3     1  UNL1       -0.3830
     31 H          60.5327   84.7481    8.5882 H       1  UNL1        0.2104
     32 C          62.0818   87.2924   10.2156 C.3     1  UNL1        0.0401
     33 C          62.3484   86.9647   11.6548 C.3     1  UNL1        0.0833
     34 C          63.1222   87.9226   12.5112 C.2     1  UNL1        0.2226
     35 O          64.0877   87.4022   13.5345 O.2     1  UNL1       -0.2751
     36 N          62.9307   89.4009   12.3444 N.am    1  UNL1       -0.2999
     37 H          62.2970   89.7425   11.6728 H       1  UNL1        0.1498
     38 C          63.7045   90.3589   13.2009 C.3     1  UNL1        0.1278
     39 C          64.5097   91.4524   12.5638 C.ar    1  UNL1        0.0320
     40 C          64.5410   91.5880   11.0702 C.ar    1  UNL1        0.0004
     41 C          65.3462   92.6815   10.4331 C.ar    1  UNL1       -0.0001
     42 C          66.1200   93.6395   11.2896 C.ar    1  UNL1        0.0031
     43 C          66.0888   93.5039   12.7831 C.ar    1  UNL1        0.0366
     44 C          65.2836   92.4103   13.4202 C.ar    1  UNL1        0.1362
     45 O          65.2523   92.2748   14.9137 O.3     1  UNL1       -0.4730
     46 C          64.4471   91.1813   15.5508 C.3     1  UNL1        0.2364
     47 C          63.6732   90.2233   14.6944 C.3     1  UNL1        0.1762
     48 O          62.8681   89.1298   15.3315 O.3     1  UNL1       -0.3788
     49 H          62.9559   89.1835   16.2960 H       1  UNL1        0.2106
     50 C          61.8411   85.6790   12.2377 C.3     1  UNL1        0.0355
     51 C          62.7459   84.4857   12.3232 C.ar    1  UNL1       -0.0217
     52 C          63.0978   83.9056   13.6611 C.ar    1  UNL1       -0.0043
     53 C          64.0026   82.7123   13.7466 C.ar    1  UNL1       -0.0003
     54 C          64.5556   82.0991   12.4943 C.ar    1  UNL1       -0.0000
     55 C          64.2038   82.6792   11.1566 C.ar    1  UNL1       -0.0003
     56 C          63.2989   83.8725   11.0710 C.ar    1  UNL1       -0.0043
@<TRIPOS>BOND
     1    17    18    1
     2    18    19    1
     3    18    20    1
     4    20    21   ar
     5    21    22   ar
     6    22    23   ar
     7    23    24   ar
     8    24    25   ar
     9    25    26   ar
    10    26    27   ar
    11    27    28   ar
    12    18     2    1
    13     2     3    1
    14     3     4    1
    15     4     5    1
    16     5     1    1
    17     1    29    1
    18    29    30    1
    19    29    32    1
    20    33    32    1
    21    33    50    1
    22    50    51    1
    23    51    52   ar
    24    52    53   ar
    25    53    54   ar
    26    54    55   ar
    27    55    56   ar
    28    33    34    1
    29    34    35    2
    30    34    36   am
    31    38    36    1
    32    38    39    1
    33    39    40   ar
    34    40    41   ar
    35    41    42   ar
    36    42    43   ar
    37    43    44   ar
    38    44    45    1
    39    45    46    1
    40    46    47    1
    41    47    48    1
    42     5     6    1
    43     6     8    1
    44     8     9    2
    45     8    10   am
    46    10    12    1
    47    12    13    1
    48    13    14    1
    49    13    15    1
    50    13    16    1
    51     6     7    1
    52    28    20   ar
    53     7     2    1
    54    27    22   ar
    55    56    51   ar
    56    47    38    1
    57    44    39   ar
    58    30    31    1
    59    36    37    1
    60    48    49    1
    61    10    11    1
@<TRIPOS>MOLECULE
*****
 56 61 0 0 0
SMALL
GASTEIGER

@<TRIPOS>ATOM
      1 C          59.9703   87.4880    9.9866 C.3     1  UNL1        0.1021
      2 N          60.0301   90.0725    6.3033 N.3     1  UNL1       -0.2663
      3 C          59.3615   88.7303    6.2669 C.3     1  UNL1        0.0899
      4 C          59.3416   87.8688    7.4947 C.3     1  UNL1        0.0901
      5 N          59.9903   88.3495    8.7588 N.3     1  UNL1       -0.2621
      6 C          60.6589   89.6918    8.7952 C.3     1  UNL1        0.1510
      7 C          60.6789   90.5533    7.5675 C.3     1  UNL1        0.0980
      8 C          61.3076   90.1725   10.0594 C.2     1  UNL1        0.2386
      9 O          60.4752   90.4193   11.2826 O.2     1  UNL1       -0.2736
     10 N          62.7887   90.4064   10.1003 N.am    1  UNL1       -0.2961
     11 H          63.3351   90.2444    9.2975 H       1  UNL1        0.1497
     12 C          63.4374   90.8871   11.3645 C.3     1  UNL1        0.1939
     13 C          64.5454   91.8962   11.3020 C.3     1  UNL1        0.4154
     14 F          65.6535   92.9054   11.2396 F       1  UNL1       -0.1682
     15 F          65.1404   91.3204   12.5527 F       1  UNL1       -0.1682
     16 F          63.9505   92.4721   10.0513 F       1  UNL1       -0.1682
     17 C          61.5136   90.6539    4.9028 C.3     1  UNL1        0.0238
     18 C          60.0501   90.9339    5.0755 C.3     1  UNL1        0.0969
     19 C          58.5866   91.2139    5.2482 C.3     1  UNL1        0.0238
     20 C          60.0700   91.7954    3.8477 C.ar    1  UNL1        0.1356
     21 C          61.2862   92.4135    3.2240 C.ar    1  UNL1        0.0388
     22 C          60.8451   93.1902    2.0189 C.ar    1  UNL1        0.0564
     23 C          61.6067   94.0053    1.0161 C.ar    1  UNL1        0.1020
     24 N          60.8796   94.6823   -0.1077 N.ar    1  UNL1       -0.2421
     25 C          59.3909   94.5442   -0.2287 C.ar    1  UNL1        0.1020
     26 C          58.6293   93.7291    0.7740 C.ar    1  UNL1        0.0581
     27 C          59.3564   93.0521    1.8978 C.ar    1  UNL1        0.1479
     28 O          58.8774   92.1901    3.0281 O.2     1  UNL1       -0.4564
     29 C          61.2577   87.0979   10.6501 C.3     1  UNL1        0.1269
     30 O          61.8525   87.9780   11.7090 O.3     1  UNL1       -0.3830
     31 H          61.2837   88.7523   11.8430 H       1  UNL1        0.2104
     32 C          61.9504   85.8275   10.2546 C.3     1  UNL1        0.0401
     33 C          62.7092   85.0368   11.2787 C.3     1  UNL1        0.0833
     34 C          62.5584   85.3572   12.7363 C.2     1  UNL1        0.2226
     35 O          61.3302   84.9184   13.4775 O.2     1  UNL1       -0.2751
     36 N          63.6356   86.1163   13.4527 N.am    1  UNL1       -0.2999
     37 H          64.4416   86.4043   12.9663 H       1  UNL1        0.1498
     38 C          63.4847   86.4367   14.9103 C.3     1  UNL1        0.1278
     39 C          63.5040   87.8643   15.3703 C.ar    1  UNL1        0.0320
     40 C          63.6742   88.9715   14.3727 C.ar    1  UNL1        0.0004
     41 C          63.6935   90.3991   14.8328 C.ar    1  UNL1       -0.0001
     42 C          63.5427   90.7195   16.2904 C.ar    1  UNL1        0.0031
     43 C          63.3725   89.6124   17.2879 C.ar    1  UNL1        0.0366
     44 C          63.3532   88.1847   16.8279 C.ar    1  UNL1        0.1362
     45 O          63.1830   87.0776   17.8255 O.3     1  UNL1       -0.4730
     46 C          63.1637   85.6500   17.3655 C.3     1  UNL1        0.2364
     47 C          63.3146   85.3296   15.9079 C.3     1  UNL1        0.1762
     48 O          63.2952   83.9019   15.4479 O.3     1  UNL1       -0.3788
     49 H          63.1781   83.3173   16.2130 H       1  UNL1        0.2106
     50 C          63.6189   83.9256   10.8453 C.3     1  UNL1        0.0355
     51 C          63.3070   82.5089   11.2270 C.ar    1  UNL1       -0.0217
     52 C          63.0153   82.1645   12.6576 C.ar    1  UNL1       -0.0043
     53 C          62.7034   80.7478   13.0393 C.ar    1  UNL1       -0.0003
     54 C          62.6833   79.6756   11.9906 C.ar    1  UNL1       -0.0000
     55 C          62.9750   80.0199   10.5601 C.ar    1  UNL1       -0.0003
     56 C          63.2869   81.4367   10.1783 C.ar    1  UNL1       -0.0043
@<TRIPOS>BOND
     1    17    18    1
     2    18    19    1
     3    18    20    1
     4    20    21   ar
     5    21    22   ar
     6    22    23   ar
     7    23    24   ar
     8    24    25   ar
     9    25    26   ar
    10    26    27   ar
    11    27    28   ar
    12    18     2    1
    13     2     3    1
    14     3     4    1
    15     4     5    1
    16     5     1    1
    17     1    29    1
    18    29    30    1
    19    29    32    1
    20    33    32    1
    21    33    50    1
    22    50    51    1
    23    51    52   ar
    24    52    53   ar
    25    53    54   ar
    26    54    55   ar
    27    55    56   ar
    28    33    34    1
    29    34    35    2
    30    34    36   am
    31    38    36    1
    32    38    39    1
    33    39    40   ar
    34    40    41   ar
    35    41    42   ar
    36    42    43   ar
    37    43    44   ar
    38    44    45    1
    39    45    46    1
    40    46    47    1
    41    47    48    1
    42     5     6    1
    43     6     8    1
    44     8     9    2
    45     8    10   am
    46    10    12    1
    47    12    13    1
    48    13    14    1
    49    13    15    1
    50    13    16    1
    51     6     7    1
    52    28    20   ar
    53     7     2    1
    54    27    22   ar
    55    56    51   ar
    56    47    38    1
    57    44    39   ar
    58    30    31    1
    59    36    37    1
    60    48    49    1
    61    10    11    1
@<TRIPOS>MOLECULE
*****
 56 61 0 0 0
SMALL
GASTEIGER

@<TRIPOS>ATOM
      1 C          61.5380   89.9496    9.8212 C.3     1  UNL1        0.1021
      2 N          62.0797   85.5251   10.4377 N.3     1  UNL1       -0.2663
      3 C          62.9285   86.4981   11.2010 C.3     1  UNL1        0.0899
      4 C          62.7480   87.9730   10.9954 C.3     1  UNL1        0.0901
      5 N          61.7186   88.4747   10.0267 N.3     1  UNL1       -0.2621
      6 C          60.8697   87.5017    9.2634 C.3     1  UNL1        0.1510
      7 C          61.0502   86.0268    9.4689 C.3     1  UNL1        0.0980
      8 C          59.8403   88.0034    8.2946 C.2     1  UNL1        0.2386
      9 O          58.5643   87.2407    8.0941 O.2     1  UNL1       -0.2736
     10 N          60.0868   89.2680    7.5263 N.am    1  UNL1       -0.2961
     11 H          60.9243   89.7686    7.6579 H       1  UNL1        0.1497
     12 C          59.0574   89.7698    6.5576 C.3     1  UNL1        0.1939
     13 C          59.4164   90.8391    5.5688 C.3     1  UNL1        0.4154
     14 F          59.7753   91.9085    4.5801 F       1  UNL1       -0.1682
     15 F          58.0256   91.3930    5.6630 F       1  UNL1       -0.1682
     16 F          60.8072   90.2852    5.4747 F       1  UNL1       -0.1682
     17 C          62.5959   83.8888    9.1902 C.3     1  UNL1        0.0238
     18 C          62.2602   84.0502   10.6432 C.3     1  UNL1        0.0969
     19 C          61.9245   84.2116   12.0963 C.3     1  UNL1        0.0238
     20 C          62.4408   82.5754   10.8488 C.ar    1  UNL1        0.1356
     21 C          62.3565   81.8510   12.1596 C.ar    1  UNL1        0.0388
     22 C          62.6009   80.3939   11.9005 C.ar    1  UNL1        0.0564
     23 C          62.6396   79.2047   12.8139 C.ar    1  UNL1        0.1020
     24 N          62.9137   77.8394   12.2564 N.ar    1  UNL1       -0.2421
     25 C          63.1491   77.6633   10.7855 C.ar    1  UNL1        0.1020
     26 C          63.1104   78.8524    9.8721 C.ar    1  UNL1        0.0581
     27 C          62.8363   80.2177   10.4296 C.ar    1  UNL1        0.1479
     28 O          62.7374   81.5659    9.7796 O.2     1  UNL1       -0.4564
     29 C          62.0371   90.9172   10.8529 C.3     1  UNL1        0.1269
     30 O          61.0621   91.6712   11.7077 O.3     1  UNL1       -0.3830
     31 H          60.1573   91.4179   11.4665 H       1  UNL1        0.2104
     32 C          63.5112   91.1309   11.0298 C.3     1  UNL1        0.0401
     33 C          64.1073   91.1445   12.4062 C.3     1  UNL1        0.0833
     34 C          63.5622   90.2365   13.4685 C.2     1  UNL1        0.2226
     35 O          62.0824   90.1584   13.7015 O.2     1  UNL1       -0.2751
     36 N          64.4969   89.4066   14.2977 N.am    1  UNL1       -0.2999
     37 H          65.4681   89.4579   14.1448 H       1  UNL1        0.1498
     38 C          63.9519   88.4986   15.3601 C.3     1  UNL1        0.1278
     39 C          64.0664   87.0110   15.2062 C.ar    1  UNL1        0.0320
     40 C          64.7259   86.4312   13.9901 C.ar    1  UNL1        0.0004
     41 C          64.8404   84.9436   13.8363 C.ar    1  UNL1       -0.0001
     42 C          64.2954   84.0356   14.8986 C.ar    1  UNL1        0.0031
     43 C          63.6358   84.6152   16.1147 C.ar    1  UNL1        0.0366
     44 C          63.5213   86.1030   16.2686 C.ar    1  UNL1        0.1362
     45 O          62.8618   86.6826   17.4847 O.3     1  UNL1       -0.4730
     46 C          62.7473   88.1703   17.6385 C.3     1  UNL1        0.2364
     47 C          63.2923   89.0783   16.5762 C.3     1  UNL1        0.1762
     48 O          63.1778   90.5660   16.7300 O.3     1  UNL1       -0.3788
     49 H          62.7291   90.7711   17.5652 H       1  UNL1        0.2106
     50 C          65.2484   92.0661   12.7204 C.3     1  UNL1        0.0355
     51 C          66.0232   92.7068   11.6073 C.ar    1  UNL1       -0.0217
     52 C          65.6634   94.0861   11.1400 C.ar    1  UNL1       -0.0043
     53 C          66.4382   94.7268   10.0270 C.ar    1  UNL1       -0.0003
     54 C          67.5730   93.9884    9.3811 C.ar    1  UNL1       -0.0000
     55 C          67.9328   92.6092    9.8483 C.ar    1  UNL1       -0.0003
     56 C          67.1579   91.9684   10.9614 C.ar    1  UNL1       -0.0043
@<TRIPOS>BOND
     1    17    18    1
     2    18    19    1
     3    18    20    1
     4    20    21   ar
     5    21    22   ar
     6    22    23   ar
     7    23    24   ar
     8    24    25   ar
     9    25    26   ar
    10    26    27   ar
    11    27    28   ar
    12    18     2    1
    13     2     3    1
    14     3     4    1
    15     4     5    1
    16     5     1    1
    17     1    29    1
    18    29    30    1
    19    29    32    1
    20    33    32    1
    21    33    50    1
    22    50    51    1
    23    51    52   ar
    24    52    53   ar
    25    53    54   ar
    26    54    55   ar
    27    55    56   ar
    28    33    34    1
    29    34    35    2
    30    34    36   am
    31    38    36    1
    32    38    39    1
    33    39    40   ar
    34    40    41   ar
    35    41    42   ar
    36    42    43   ar
    37    43    44   ar
    38    44    45    1
    39    45    46    1
    40    46    47    1
    41    47    48    1
    42     5     6    1
    43     6     8    1
    44     8     9    2
    45     8    10   am
    46    10    12    1
    47    12    13    1
    48    13    14    1
    49    13    15    1
    50    13    16    1
    51     6     7    1
    52    28    20   ar
    53     7     2    1
    54    27    22   ar
    55    56    51   ar
    56    47    38    1
    57    44    39   ar
    58    30    31    1
    59    36    37    1
    60    48    49    1
    61    10    11    1
@<TRIPOS>MOLECULE
*****
 56 61 0 0 0
SMALL
GASTEIGER

@<TRIPOS>ATOM
      1 C          60.6703   94.6814   -0.1699 C.3     1  UNL1        0.1021
      2 N          60.2657   92.0777    3.4781 N.3     1  UNL1       -0.2663
      3 C          59.0428   92.5029    2.7207 C.3     1  UNL1        0.0899
      4 C          59.1776   93.3708    1.5048 C.3     1  UNL1        0.0901
      5 N          60.5354   93.8135    1.0461 N.3     1  UNL1       -0.2621
      6 C          61.7585   93.3883    1.8034 C.3     1  UNL1        0.1510
      7 C          61.6236   92.5204    3.0194 C.3     1  UNL1        0.0980
      8 C          63.1162   93.8310    1.3448 C.2     1  UNL1        0.2386
      9 O          64.2063   92.8204    1.1434 O.2     1  UNL1       -0.2736
     10 N          63.3840   95.2843    1.0875 N.am    1  UNL1       -0.2961
     11 H          62.6686   95.9476    1.2196 H       1  UNL1        0.1497
     12 C          64.7418   95.7270    0.6288 C.3     1  UNL1        0.1939
     13 C          65.0366   95.8453   -0.8371 C.3     1  UNL1        0.4154
     14 F          65.3314   95.9635   -2.3032 F       1  UNL1       -0.1682
     15 F          66.3676   96.4598   -0.5200 F       1  UNL1       -0.1682
     16 F          63.7055   95.2307   -1.1543 F       1  UNL1       -0.1682
     17 C          61.5691   90.8041    4.5639 C.3     1  UNL1        0.0238
     18 C          60.1309   91.2099    4.6940 C.3     1  UNL1        0.0969
     19 C          58.6927   91.6156    4.8242 C.3     1  UNL1        0.0238
     20 C          59.9961   90.3420    5.9100 C.ar    1  UNL1        0.1356
     21 C          59.2642   89.0346    5.9834 C.ar    1  UNL1        0.0388
     22 C          59.3853   88.5137    7.3849 C.ar    1  UNL1        0.0564
     23 C          58.8652   87.2695    8.0416 C.ar    1  UNL1        0.1020
     24 N          59.1517   87.0106    9.4910 N.ar    1  UNL1       -0.2421
     25 C          59.9583   87.9960   10.2837 C.ar    1  UNL1        0.1020
     26 C          60.4783   89.2402    9.6270 C.ar    1  UNL1        0.0581
     27 C          60.1918   89.4991    8.1776 C.ar    1  UNL1        0.1479
     28 O          60.5693   90.6290    7.2661 O.2     1  UNL1       -0.4564
     29 C          59.7563   94.4779   -1.3417 C.3     1  UNL1        0.1269
     30 O          58.3089   94.8581   -1.2388 O.3     1  UNL1       -0.3830
     31 H          58.1310   95.2172   -0.3554 H       1  UNL1        0.2104
     32 C          60.2895   93.8941   -2.6163 C.3     1  UNL1        0.0401
     33 C          60.4221   94.7548   -3.8376 C.3     1  UNL1        0.0833
     34 C          59.1996   95.1565   -4.6084 C.2     1  UNL1        0.2226
     35 O          59.2511   96.3345   -5.5356 O.2     1  UNL1       -0.2751
     36 N          57.9257   94.3803   -4.4519 N.am    1  UNL1       -0.2999
     37 H          57.8919   93.6072   -3.8434 H       1  UNL1        0.1498
     38 C          56.7032   94.7821   -5.2227 C.3     1  UNL1        0.1278
     39 C          55.4867   95.2742   -4.4962 C.ar    1  UNL1        0.0320
     40 C          55.4926   95.3646   -2.9989 C.ar    1  UNL1        0.0004
     41 C          54.2761   95.8568   -2.2724 C.ar    1  UNL1       -0.0001
     42 C          53.0536   96.2585   -3.0432 C.ar    1  UNL1        0.0031
     43 C          53.0476   96.1681   -4.5404 C.ar    1  UNL1        0.0366
     44 C          54.2641   95.6760   -5.2670 C.ar    1  UNL1        0.1362
     45 O          54.2582   95.5856   -6.7642 O.3     1  UNL1       -0.4730
     46 C          55.4747   95.0934   -7.4907 C.3     1  UNL1        0.2364
     47 C          56.6972   94.6917   -6.7199 C.3     1  UNL1        0.1762
     48 O          57.9138   94.1995   -7.4465 O.3     1  UNL1       -0.3788
     49 H          57.7435   94.2030   -8.4014 H       1  UNL1        0.2106
     50 C          61.7773   95.2137   -4.2882 C.3     1  UNL1        0.0355
     51 C          62.7558   94.2250   -4.8493 C.ar    1  UNL1       -0.0217
     52 C          63.6384   93.4372   -3.9270 C.ar    1  UNL1       -0.0043
     53 C          64.6169   92.4485   -4.4880 C.ar    1  UNL1       -0.0003
     54 C          64.7129   92.2474   -5.9714 C.ar    1  UNL1       -0.0000
     55 C          63.8304   93.0351   -6.8937 C.ar    1  UNL1       -0.0003
     56 C          62.8518   94.0239   -6.3326 C.ar    1  UNL1       -0.0043
@<TRIPOS>BOND
     1    17    18    1
     2    18    19    1
     3    18    20    1
     4    20    21   ar
     5    21    22   ar
     6    22    23   ar
     7    23    24   ar
     8    24    25   ar
     9    25    26   ar
    10    26    27   ar
    11    27    28   ar
    12    18     2    1
    13     2     3    1
    14     3     4    1
    15     4     5    1
    16     5     1    1
    17     1    29    1
    18    29    30    1
    19    29    32    1
    20    33    32    1
    21    33    50    1
    22    50    51    1
    23    51    52   ar
    24    52    53   ar
    25    53    54   ar
    26    54    55   ar
    27    55    56   ar
    28    33    34    1
    29    34    35    2
    30    34    36   am
    31    38    36    1
    32    38    39    1
    33    39    40   ar
    34    40    41   ar
    35    41    42   ar
    36    42    43   ar
    37    43    44   ar
    38    44    45    1
    39    45    46    1
    40    46    47    1
    41    47    48    1
    42     5     6    1
    43     6     8    1
    44     8     9    2
    45     8    10   am
    46    10    12    1
    47    12    13    1
    48    13    14    1
    49    13    15    1
    50    13    16    1
    51     6     7    1
    52    28    20   ar
    53     7     2    1
    54    27    22   ar
    55    56    51   ar
    56    47    38    1
    57    44    39   ar
    58    30    31    1
    59    36    37    1
    60    48    49    1
    61    10    11    1
@<TRIPOS>MOLECULE
*****
 56 61 0 0 0
SMALL
GASTEIGER

@<TRIPOS>ATOM
      1 C          61.8655   90.3453   11.3601 C.3     1  UNL1        0.1021
      2 N          62.2561   85.8630   11.2754 N.3     1  UNL1       -0.2663
      3 C          63.0975   86.6715   12.2179 C.3     1  UNL1        0.0899
      4 C          62.9673   88.1656   12.2461 C.3     1  UNL1        0.0901
      5 N          61.9957   88.8512   11.3318 N.3     1  UNL1       -0.2621
      6 C          61.1542   88.0427   10.3893 C.3     1  UNL1        0.1510
      7 C          61.2844   86.5486   10.3610 C.3     1  UNL1        0.0980
      8 C          60.1826   88.7283    9.4750 C.2     1  UNL1        0.2386
      9 O          59.6036   90.0582    9.8571 O.2     1  UNL1       -0.2736
     10 N          59.7900   88.0839    8.1785 N.am    1  UNL1       -0.2961
     11 H          60.1700   87.2110    7.9278 H       1  UNL1        0.1497
     12 C          58.8184   88.7694    7.2643 C.3     1  UNL1        0.1939
     13 C          59.3076   89.7876    6.2774 C.3     1  UNL1        0.4154
     14 F          59.7970   90.8057    5.2905 F       1  UNL1       -0.1682
     15 F          60.7255   89.4475    6.6295 F       1  UNL1       -0.1682
     16 F          57.8898   90.1276    5.9253 F       1  UNL1       -0.1682
     17 C          62.3710   84.3960    9.7475 C.3     1  UNL1        0.0238
     18 C          62.3863   84.3690   11.2472 C.3     1  UNL1        0.0969
     19 C          62.4016   84.3420   12.7468 C.3     1  UNL1        0.0238
     20 C          62.5165   82.8749   11.2189 C.ar    1  UNL1        0.1356
     21 C          62.4061   81.9578   12.4008 C.ar    1  UNL1        0.0388
     22 C          62.6014   80.5517   11.9162 C.ar    1  UNL1        0.0564
     23 C          62.5986   79.2337   12.6324 C.ar    1  UNL1        0.1020
     24 N          62.8269   77.9639   11.8673 N.ar    1  UNL1       -0.2421
     25 C          63.0580   78.0121   10.3860 C.ar    1  UNL1        0.1020
     26 C          63.0607   79.3300    9.6697 C.ar    1  UNL1        0.0581
     27 C          62.8324   80.5998   10.4348 C.ar    1  UNL1        0.1479
     28 O          62.7800   82.0356   10.0040 O.2     1  UNL1       -0.4564
     29 C          63.0697   91.1981   11.6291 C.3     1  UNL1        0.1269
     30 O          64.0004   91.5563   10.5086 O.3     1  UNL1       -0.3830
     31 H          63.6809   91.1591    9.6834 H       1  UNL1        0.2104
     32 C          63.3432   91.6928   13.0185 C.3     1  UNL1        0.0401
     33 C          64.7559   91.9153   13.4709 C.3     1  UNL1        0.0833
     34 C          65.7034   92.7001   12.6128 C.2     1  UNL1        0.2226
     35 O          67.1835   92.5002   12.7532 O.2     1  UNL1       -0.2751
     36 N          65.1710   93.6847   11.6143 N.am    1  UNL1       -0.2999
     37 H          64.1996   93.8158   11.5221 H       1  UNL1        0.1498
     38 C          66.1185   94.4694   10.7562 C.3     1  UNL1        0.1278
     39 C          67.1149   93.7551    9.8920 C.ar    1  UNL1        0.0320
     40 C          67.1638   92.2558    9.8859 C.ar    1  UNL1        0.0004
     41 C          68.1601   91.5414    9.0217 C.ar    1  UNL1       -0.0001
     42 C          69.1076   92.3262    8.1636 C.ar    1  UNL1        0.0031
     43 C          69.0588   93.8254    8.1697 C.ar    1  UNL1        0.0366
     44 C          68.0624   94.5398    9.0339 C.ar    1  UNL1        0.1362
     45 O          68.0136   96.0390    9.0400 O.3     1  UNL1       -0.4730
     46 C          67.0172   96.7534    9.9042 C.3     1  UNL1        0.2364
     47 C          66.0697   95.9686   10.7623 C.3     1  UNL1        0.1762
     48 O          65.0733   96.6831   11.6265 O.3     1  UNL1       -0.3788
     49 H          65.1749   97.6410   11.5129 H       1  UNL1        0.2106
     50 C          65.2212   91.3530   14.7814 C.3     1  UNL1        0.0355
     51 C          64.5589   90.1341   15.3520 C.ar    1  UNL1       -0.0217
     52 C          64.8861   88.7767   14.8037 C.ar    1  UNL1       -0.0043
     53 C          64.2238   87.5578   15.3742 C.ar    1  UNL1       -0.0003
     54 C          63.2344   87.6961   16.4931 C.ar    1  UNL1       -0.0000
     55 C          62.9072   89.0534   17.0414 C.ar    1  UNL1       -0.0003
     56 C          63.5695   90.2724   16.4708 C.ar    1  UNL1       -0.0043
@<TRIPOS>BOND
     1    17    18    1
     2    18    19    1
     3    18    20    1
     4    20    21   ar
     5    21    22   ar
     6    22    23   ar
     7    23    24   ar
     8    24    25   ar
     9    25    26   ar
    10    26    27   ar
    11    27    28   ar
    12    18     2    1
    13     2     3    1
    14     3     4    1
    15     4     5    1
    16     5     1    1
    17     1    29    1
    18    29    30    1
    19    29    32    1
    20    33    32    1
    21    33    50    1
    22    50    51    1
    23    51    52   ar
    24    52    53   ar
    25    53    54   ar
    26    54    55   ar
    27    55    56   ar
    28    33    34    1
    29    34    35    2
    30    34    36   am
    31    38    36    1
    32    38    39    1
    33    39    40   ar
    34    40    41   ar
    35    41    42   ar
    36    42    43   ar
    37    43    44   ar
    38    44    45    1
    39    45    46    1
    40    46    47    1
    41    47    48    1
    42     5     6    1
    43     6     8    1
    44     8     9    2
    45     8    10   am
    46    10    12    1
    47    12    13    1
    48    13    14    1
    49    13    15    1
    50    13    16    1
    51     6     7    1
    52    28    20   ar
    53     7     2    1
    54    27    22   ar
    55    56    51   ar
    56    47    38    1
    57    44    39   ar
    58    30    31    1
    59    36    37    1
    60    48    49    1
    61    10    11    1
@<TRIPOS>MOLECULE
*****
 56 61 0 0 0
SMALL
GASTEIGER

@<TRIPOS>ATOM
      1 C          59.3712   87.9303    9.7376 C.3     1  UNL1        0.1021
      2 N          59.8141   90.4104    6.0090 N.3     1  UNL1       -0.2663
      3 C          59.4151   91.0617    7.3000 C.3     1  UNL1        0.0899
      4 C          59.2674   90.2350    8.5428 C.3     1  UNL1        0.0901
      5 N          59.5188   88.7570    8.4948 N.3     1  UNL1       -0.2621
      6 C          59.9179   88.1057    7.2038 C.3     1  UNL1        0.1510
      7 C          60.0655   88.9324    5.9609 C.3     1  UNL1        0.0980
      8 C          60.1693   86.6277    7.1557 C.2     1  UNL1        0.2386
      9 O          59.0145   85.6703    7.1495 O.2     1  UNL1       -0.2736
     10 N          61.5754   86.1070    7.1139 N.am    1  UNL1       -0.2961
     11 H          62.3333   86.7354    7.1179 H       1  UNL1        0.1497
     12 C          61.8268   84.6290    7.0658 C.3     1  UNL1        0.1939
     13 C          61.9216   83.9271    5.7436 C.3     1  UNL1        0.4154
     14 F          62.0165   83.2251    4.4213 F       1  UNL1       -0.1682
     15 F          63.2882   84.5084    5.5330 F       1  UNL1       -0.1682
     16 F          60.5550   83.3458    5.9542 F       1  UNL1       -0.1682
     17 C          58.5013   91.5752    4.8175 C.3     1  UNL1        0.0238
     18 C          59.9618   91.2371    4.7662 C.3     1  UNL1        0.0969
     19 C          61.4223   90.8991    4.7148 C.3     1  UNL1        0.0238
     20 C          60.1094   92.0639    3.5233 C.ar    1  UNL1        0.1356
     21 C          61.4035   92.4554    2.8734 C.ar    1  UNL1        0.0388
     22 C          61.0827   93.2777    1.6605 C.ar    1  UNL1        0.0564
     23 C          61.9567   93.9354    0.6340 C.ar    1  UNL1        0.1020
     24 N          61.3385   94.7096   -0.4922 N.ar    1  UNL1       -0.2421
     25 C          59.8463   94.8263   -0.5918 C.ar    1  UNL1        0.1020
     26 C          58.9724   94.1687    0.4347 C.ar    1  UNL1        0.0581
     27 C          59.5906   93.3944    1.5608 C.ar    1  UNL1        0.1479
     28 O          58.9891   92.6442    2.7121 O.2     1  UNL1       -0.4564
     29 C          60.3027   88.1417   10.8941 C.3     1  UNL1        0.1269
     30 O          59.8332   88.8857   12.1090 O.3     1  UNL1       -0.3830
     31 H          58.9109   89.1591   11.9843 H       1  UNL1        0.2104
     32 C          61.7038   87.6092   10.8357 C.3     1  UNL1        0.0401
     33 C          62.3844   87.1497   12.0909 C.3     1  UNL1        0.0833
     34 C          63.2026   88.1147   12.8968 C.2     1  UNL1        0.2226
     35 O          64.2665   87.6047   13.8232 O.2     1  UNL1       -0.2751
     36 N          62.9569   89.5894   12.7762 N.am    1  UNL1       -0.2999
     37 H          62.2587   89.9241   12.1682 H       1  UNL1        0.1498
     38 C          63.7751   90.5544   13.5821 C.3     1  UNL1        0.1278
     39 C          64.6409   91.5646   12.8894 C.ar    1  UNL1        0.0320
     40 C          64.6886   91.6099   11.3908 C.ar    1  UNL1        0.0004
     41 C          65.5544   92.6201   10.6981 C.ar    1  UNL1       -0.0001
     42 C          66.3725   93.5851   11.5040 C.ar    1  UNL1        0.0031
     43 C          66.3249   93.5398   13.0025 C.ar    1  UNL1        0.0366
     44 C          65.4591   92.5296   13.6953 C.ar    1  UNL1        0.1362
     45 O          65.4115   92.4844   15.1938 O.3     1  UNL1       -0.4730
     46 C          64.5457   91.4741   15.8865 C.3     1  UNL1        0.2364
     47 C          63.7275   90.5092   15.0806 C.3     1  UNL1        0.1762
     48 O          62.8617   89.4989   15.7734 O.3     1  UNL1       -0.3788
     49 H          62.9463   89.6049   16.7338 H       1  UNL1        0.2106
     50 C          62.2469   85.7252   12.5403 C.3     1  UNL1        0.0355
     51 C          63.0385   84.6455   11.8638 C.ar    1  UNL1       -0.0217
     52 C          63.7519   83.6123   12.6845 C.ar    1  UNL1       -0.0043
     53 C          64.5435   82.5327   12.0080 C.ar    1  UNL1       -0.0003
     54 C          64.6218   82.4862   10.5107 C.ar    1  UNL1       -0.0000
     55 C          63.9084   83.5194    9.6900 C.ar    1  UNL1       -0.0003
     56 C          63.1167   84.5991   10.3665 C.ar    1  UNL1       -0.0043
@<TRIPOS>BOND
     1    17    18    1
     2    18    19    1
     3    18    20    1
     4    20    21   ar
     5    21    22   ar
     6    22    23   ar
     7    23    24   ar
     8    24    25   ar
     9    25    26   ar
    10    26    27   ar
    11    27    28   ar
    12    18     2    1
    13     2     3    1
    14     3     4    1
    15     4     5    1
    16     5     1    1
    17     1    29    1
    18    29    30    1
    19    29    32    1
    20    33    32    1
    21    33    50    1
    22    50    51    1
    23    51    52   ar
    24    52    53   ar
    25    53    54   ar
    26    54    55   ar
    27    55    56   ar
    28    33    34    1
    29    34    35    2
    30    34    36   am
    31    38    36    1
    32    38    39    1
    33    39    40   ar
    34    40    41   ar
    35    41    42   ar
    36    42    43   ar
    37    43    44   ar
    38    44    45    1
    39    45    46    1
    40    46    47    1
    41    47    48    1
    42     5     6    1
    43     6     8    1
    44     8     9    2
    45     8    10   am
    46    10    12    1
    47    12    13    1
    48    13    14    1
    49    13    15    1
    50    13    16    1
    51     6     7    1
    52    28    20   ar
    53     7     2    1
    54    27    22   ar
    55    56    51   ar
    56    47    38    1
    57    44    39   ar
    58    30    31    1
    59    36    37    1
    60    48    49    1
    61    10    11    1
