@<TRIPOS>MOLECULE
*****
 34 37 0 0 0
SMALL
GASTEIGER

@<TRIPOS>ATOM
      1 C          62.4786   85.2575   12.4887 C.ar    1  UNL1        0.1679
      2 C          63.3790   86.3033   13.0765 C.ar    1  UNL1        0.0733
      3 C          63.3982   87.6873   12.4986 C.ar    1  UNL1        0.1390
      4 N          62.5169   88.0256   11.3329 N.ar    1  UNL1       -0.2101
      5 C          61.6165   86.9798   10.7451 C.ar    1  UNL1        0.1828
      6 N          61.5973   85.5958   11.3230 N.ar    1  UNL1       -0.2061
      7 C          62.4738   79.9948   12.9190 C.3     1  UNL1        0.0540
      8 C          62.4572   81.4544   13.2644 C.ar    1  UNL1        0.0805
      9 C          62.4026   82.0326   14.6475 C.ar    1  UNL1        0.0312
     10 C          62.4039   83.5276   14.5252 C.ar    1  UNL1        0.0637
     11 C          62.3579   84.5052   15.6619 C.3     1  UNL1        0.0522
     12 N          62.4594   83.8734   13.0666 N.ar    1  UNL1       -0.2164
     13 N          62.4924   82.5921   12.2874 N.ar    1  UNL1       -0.1684
     14 C          60.7352   87.3181    9.5794 C.ar    1  UNL1        0.1171
     15 C          60.4901   88.7526    9.2159 C.ar    1  UNL1        0.0223
     16 C          59.6088   89.0909    8.0502 C.ar    1  UNL1        0.0032
     17 C          58.9726   87.9947    7.2480 C.ar    1  UNL1        0.0207
     18 C          59.2177   86.5602    7.6115 C.ar    1  UNL1        0.0989
     19 N          60.0990   86.2219    8.7772 N.ar    1  UNL1       -0.2407
     20 N          64.2987   88.7332   13.0864 N.am    1  UNL1       -0.2689
     21 C          63.7323   89.7898   13.9879 C.2     1  UNL1        0.2316
     22 O          62.2654   89.8006   14.3016 O.2     1  UNL1       -0.2744
     23 H          65.2614   88.7260   12.8805 H       1  UNL1        0.1563
     24 C          64.6326   90.8356   14.5757 C.3     1  UNL1        0.1117
     25 C          65.1499   91.9499   13.7149 C.ar    1  UNL1       -0.0130
     26 C          64.7739   92.0133   12.2642 C.ar    1  UNL1       -0.0025
     27 C          65.2911   93.1276   11.4035 C.ar    1  UNL1        0.0180
     28 C          66.1843   94.1784   11.9934 C.ar    1  UNL1        0.1057
     29 C          66.5602   94.1150   13.4442 C.ar    1  UNL1        0.0180
     30 C          66.0430   93.0007   14.3049 C.ar    1  UNL1       -0.0025
     31 S          66.7015   95.2926   11.1326 S.O2    1  UNL1        0.0104
     32 C          67.2187   96.4069   10.2718 C.3     1  UNL1        0.1816
     33 O          67.5363   94.3115   10.3642 O.2     1  UNL1       -0.1686
     34 O          65.8666   96.2737   11.9010 O.2     1  UNL1       -0.1686
@<TRIPOS>BOND
     1     7     8    1
     2     8     9   ar
     3     9    10   ar
     4    10    11    1
     5    10    12   ar
     6    12     1    1
     7     1     2   ar
     8     2     3   ar
     9     3    20    1
    10    20    21   am
    11    21    22    2
    12    21    24    1
    13    24    25    1
    14    25    26   ar
    15    26    27   ar
    16    27    28   ar
    17    28    31    1
    18    31    32    1
    19    31    33    2
    20    31    34    2
    21    28    29   ar
    22    29    30   ar
    23     3     4   ar
    24     4     5   ar
    25     5    14    1
    26    14    15   ar
    27    15    16   ar
    28    16    17   ar
    29    17    18   ar
    30    18    19   ar
    31     5     6   ar
    32    12    13   ar
    33    13     8   ar
    34     6     1   ar
    35    30    25   ar
    36    19    14   ar
    37    20    23    1
@<TRIPOS>MOLECULE
*****
 34 37 0 0 0
SMALL
GASTEIGER

@<TRIPOS>ATOM
      1 C          62.6022   85.6615   12.6111 C.ar    1  UNL1        0.1679
      2 C          63.4625   86.7740   13.1328 C.ar    1  UNL1        0.0733
      3 C          63.4224   88.1230   12.4784 C.ar    1  UNL1        0.1390
      4 N          62.5221   88.3596   11.3022 N.ar    1  UNL1       -0.2101
      5 C          61.6618   87.2472   10.7805 C.ar    1  UNL1        0.1828
      6 N          61.7018   85.8981   11.4350 N.ar    1  UNL1       -0.2061
      7 C          62.5307   80.4334   13.3482 C.3     1  UNL1        0.0540
      8 C          62.6093   81.9093   13.6044 C.ar    1  UNL1        0.0805
      9 C          62.7982   82.5633   14.9411 C.ar    1  UNL1        0.0312
     10 C          62.8185   84.0485   14.7317 C.ar    1  UNL1        0.0637
     11 C          62.9858   85.0873   15.8006 C.3     1  UNL1        0.0522
     12 N          62.6422   84.3123   13.2656 N.ar    1  UNL1       -0.2164
     13 N          62.5129   82.9903   12.5689 N.ar    1  UNL1       -0.1684
     14 C          60.7614   87.4838    9.6044 C.ar    1  UNL1        0.1171
     15 C          60.1636   86.3197    8.8713 C.ar    1  UNL1        0.0223
     16 C          59.2632   86.5563    7.6951 C.ar    1  UNL1        0.0032
     17 C          58.9607   87.9570    7.2520 C.ar    1  UNL1        0.0207
     18 C          59.5585   89.1211    7.9851 C.ar    1  UNL1        0.0989
     19 N          60.4588   88.8845    9.1613 N.ar    1  UNL1       -0.2407
     20 N          64.2828   89.2356   13.0001 N.am    1  UNL1       -0.2689
     21 C          64.0571   89.7732   14.3821 C.2     1  UNL1        0.2316
     22 O          62.9711   89.1983   15.2425 O.2     1  UNL1       -0.2744
     23 H          64.9956   89.6129   12.4354 H       1  UNL1        0.1563
     24 C          64.9174   90.8857   14.9038 C.3     1  UNL1        0.1117
     25 C          65.3465   91.9942   13.9889 C.ar    1  UNL1       -0.0130
     26 C          66.1649   93.1325   14.5222 C.ar    1  UNL1       -0.0025
     27 C          66.5940   94.2410   13.6073 C.ar    1  UNL1        0.0180
     28 C          66.2046   94.2113   12.1591 C.ar    1  UNL1        0.1057
     29 C          65.3861   93.0730   11.6257 C.ar    1  UNL1        0.0180
     30 C          64.9570   91.9645   12.5406 C.ar    1  UNL1       -0.0025
     31 S          66.6336   95.3198   11.2441 S.O2    1  UNL1        0.0104
     32 C          67.0627   96.4283   10.3292 C.3     1  UNL1        0.1816
     33 O          65.9217   96.3132   12.1138 O.2     1  UNL1       -0.1686
     34 O          67.3456   94.3264   10.3745 O.2     1  UNL1       -0.1686
@<TRIPOS>BOND
     1     7     8    1
     2     8     9   ar
     3     9    10   ar
     4    10    11    1
     5    10    12   ar
     6    12     1    1
     7     1     2   ar
     8     2     3   ar
     9     3    20    1
    10    20    21   am
    11    21    22    2
    12    21    24    1
    13    24    25    1
    14    25    26   ar
    15    26    27   ar
    16    27    28   ar
    17    28    31    1
    18    31    32    1
    19    31    33    2
    20    31    34    2
    21    28    29   ar
    22    29    30   ar
    23     3     4   ar
    24     4     5   ar
    25     5    14    1
    26    14    15   ar
    27    15    16   ar
    28    16    17   ar
    29    17    18   ar
    30    18    19   ar
    31     5     6   ar
    32    12    13   ar
    33    13     8   ar
    34     6     1   ar
    35    30    25   ar
    36    19    14   ar
    37    20    23    1
@<TRIPOS>MOLECULE
*****
 34 37 0 0 0
SMALL
GASTEIGER

@<TRIPOS>ATOM
      1 C          61.4936   87.6728   10.0951 C.ar    1  UNL1        0.1679
      2 C          62.2637   88.8108   10.6966 C.ar    1  UNL1        0.0733
      3 C          63.1079   88.5837   11.9155 C.ar    1  UNL1        0.1390
      4 N          63.1819   87.2187   12.5329 N.ar    1  UNL1       -0.2101
      5 C          62.4118   86.0807   11.9314 C.ar    1  UNL1        0.1828
      6 N          61.5676   86.3078   10.7125 N.ar    1  UNL1       -0.2061
      7 C          58.5503   90.0163    6.3902 C.3     1  UNL1        0.0540
      8 C          59.2965   88.9770    7.1732 C.ar    1  UNL1        0.0805
      9 C          59.4040   87.5213    6.8276 C.ar    1  UNL1        0.0312
     10 C          60.2401   86.8556    7.8801 C.ar    1  UNL1        0.0637
     11 C          60.6032   85.4010    7.9281 C.3     1  UNL1        0.0522
     12 N          60.6493   87.8999    8.8762 N.ar    1  UNL1       -0.2164
     13 N          60.0662   89.2110    8.4393 N.ar    1  UNL1       -0.1684
     14 C          62.4858   84.7157   12.5488 C.ar    1  UNL1        0.1171
     15 C          62.6890   83.5097   11.6803 C.ar    1  UNL1        0.0223
     16 C          62.7630   82.1447   12.2977 C.ar    1  UNL1        0.0032
     17 C          62.6339   81.9856   13.7836 C.ar    1  UNL1        0.0207
     18 C          62.4307   83.1916   14.6521 C.ar    1  UNL1        0.0989
     19 N          62.3566   84.5566   14.0347 N.ar    1  UNL1       -0.2407
     20 N          63.8781   89.7217   12.5171 N.am    1  UNL1       -0.2689
     21 C          64.2526   89.6892   13.9692 C.2     1  UNL1        0.2316
     22 O          63.8569   88.5187   14.8198 O.2     1  UNL1       -0.2744
     23 H          64.1378   90.4900   11.9588 H       1  UNL1        0.1563
     24 C          65.0228   90.8272   14.5708 C.3     1  UNL1        0.1117
     25 C          65.4221   91.9957   13.7193 C.ar    1  UNL1       -0.0130
     26 C          66.2071   93.1256   14.3168 C.ar    1  UNL1       -0.0025
     27 C          66.6063   94.2942   13.4653 C.ar    1  UNL1        0.0180
     28 C          66.2205   94.3329   12.0163 C.ar    1  UNL1        0.1057
     29 C          65.4355   93.2029   11.4187 C.ar    1  UNL1        0.0180
     30 C          65.0363   92.0344   12.2702 C.ar    1  UNL1       -0.0025
     31 S          66.6198   95.5015   11.1648 S.O2    1  UNL1        0.0104
     32 C          67.0190   96.6700   10.3133 C.3     1  UNL1        0.1816
     33 O          65.9017   96.4284   12.1003 O.2     1  UNL1       -0.1686
     34 O          67.3378   94.5745   10.2293 O.2     1  UNL1       -0.1686
@<TRIPOS>BOND
     1     7     8    1
     2     8     9   ar
     3     9    10   ar
     4    10    11    1
     5    10    12   ar
     6    12     1    1
     7     1     2   ar
     8     2     3   ar
     9     3    20    1
    10    20    21   am
    11    21    22    2
    12    21    24    1
    13    24    25    1
    14    25    26   ar
    15    26    27   ar
    16    27    28   ar
    17    28    31    1
    18    31    32    1
    19    31    33    2
    20    31    34    2
    21    28    29   ar
    22    29    30   ar
    23     3     4   ar
    24     4     5   ar
    25     5    14    1
    26    14    15   ar
    27    15    16   ar
    28    16    17   ar
    29    17    18   ar
    30    18    19   ar
    31     5     6   ar
    32    12    13   ar
    33    13     8   ar
    34     6     1   ar
    35    30    25   ar
    36    19    14   ar
    37    20    23    1
@<TRIPOS>MOLECULE
*****
 34 37 0 0 0
SMALL
GASTEIGER

@<TRIPOS>ATOM
      1 C          63.1378   89.6868   11.9491 C.ar    1  UNL1        0.1679
      2 C          62.1351   90.2015   10.9592 C.ar    1  UNL1        0.0733
      3 C          61.2606   89.2409   10.2093 C.ar    1  UNL1        0.1390
      4 N          61.3887   87.7658   10.4491 N.ar    1  UNL1       -0.2101
      5 C          62.3914   87.2512   11.4389 C.ar    1  UNL1        0.1828
      6 N          63.2659   88.2117   12.1889 N.ar    1  UNL1       -0.2061
      7 C          66.4011   93.6844   13.0678 C.3     1  UNL1        0.0540
      8 C          65.5124   92.4848   13.2133 C.ar    1  UNL1        0.0805
      9 C          65.2040   91.7660   14.4934 C.ar    1  UNL1        0.0312
     10 C          64.2770   90.6305   14.1755 C.ar    1  UNL1        0.0637
     11 C          63.7135   89.6501   15.1611 C.3     1  UNL1        0.0522
     12 N          64.0124   90.6474   12.6991 N.ar    1  UNL1       -0.2164
     13 N          64.7759   91.7934   12.1045 N.ar    1  UNL1       -0.1684
     14 C          62.5195   85.7760   11.6787 C.ar    1  UNL1        0.1171
     15 C          62.7653   84.8474   10.5267 C.ar    1  UNL1        0.0223
     16 C          62.8934   83.3723   10.7665 C.ar    1  UNL1        0.0032
     17 C          62.7758   82.8257   12.1584 C.ar    1  UNL1        0.0207
     18 C          62.5300   83.7543   13.3104 C.ar    1  UNL1        0.0989
     19 N          62.4019   85.2294   13.0706 N.ar    1  UNL1       -0.2407
     20 N          60.2578   89.7555    9.2194 N.am    1  UNL1       -0.2689
     21 C          59.8719   88.9163    8.0375 C.2     1  UNL1        0.2316
     22 O          60.4887   87.5625    7.8456 O.2     1  UNL1       -0.2744
     23 H          59.8530   90.6441    9.3454 H       1  UNL1        0.1563
     24 C          58.8692   89.4309    7.0477 C.3     1  UNL1        0.1117
     25 C          59.3114   90.3272    5.9292 C.ar    1  UNL1       -0.0130
     26 C          60.7502   90.3438    5.5054 C.ar    1  UNL1       -0.0025
     27 C          61.1923   91.2402    4.3870 C.ar    1  UNL1        0.0180
     28 C          60.1957   92.1200    3.6922 C.ar    1  UNL1        0.1057
     29 C          58.7569   92.1035    4.1160 C.ar    1  UNL1        0.0180
     30 C          58.3147   91.2071    5.2345 C.ar    1  UNL1       -0.0025
     31 S          60.6379   93.0164    2.5738 S.O2    1  UNL1        0.0104
     32 C          61.0800   93.9128    1.4553 C.3     1  UNL1        0.1816
     33 O          59.2070   93.3616    2.2848 O.2     1  UNL1       -0.1686
     34 O          62.0687   92.6711    2.8627 O.2     1  UNL1       -0.1686
@<TRIPOS>BOND
     1     7     8    1
     2     8     9   ar
     3     9    10   ar
     4    10    11    1
     5    10    12   ar
     6    12     1    1
     7     1     2   ar
     8     2     3   ar
     9     3    20    1
    10    20    21   am
    11    21    22    2
    12    21    24    1
    13    24    25    1
    14    25    26   ar
    15    26    27   ar
    16    27    28   ar
    17    28    31    1
    18    31    32    1
    19    31    33    2
    20    31    34    2
    21    28    29   ar
    22    29    30   ar
    23     3     4   ar
    24     4     5   ar
    25     5    14    1
    26    14    15   ar
    27    15    16   ar
    28    16    17   ar
    29    17    18   ar
    30    18    19   ar
    31     5     6   ar
    32    12    13   ar
    33    13     8   ar
    34     6     1   ar
    35    30    25   ar
    36    19    14   ar
    37    20    23    1
@<TRIPOS>MOLECULE
*****
 34 37 0 0 0
SMALL
GASTEIGER

@<TRIPOS>ATOM
      1 C          62.4222   87.2649   11.3796 C.ar    1  UNL1        0.1679
      2 C          61.4333   87.7874   10.3801 C.ar    1  UNL1        0.0733
      3 C          61.3189   89.2635   10.1395 C.ar    1  UNL1        0.1390
      4 N          62.1934   90.2171   10.8984 N.ar    1  UNL1       -0.2101
      5 C          63.1823   89.6946   11.8979 C.ar    1  UNL1        0.1828
      6 N          63.2967   88.2185   12.1385 N.ar    1  UNL1       -0.2061
      7 C          62.4935   82.5570   13.7697 C.3     1  UNL1        0.0540
      8 C          62.5694   83.6248   12.7188 C.ar    1  UNL1        0.0805
      9 C          62.8561   83.4095   11.2623 C.ar    1  UNL1        0.0312
     10 C          62.8358   84.7469   10.5833 C.ar    1  UNL1        0.0637
     11 C          63.0730   84.9984    9.1237 C.3     1  UNL1        0.0522
     12 N          62.5366   85.7887   11.6203 N.ar    1  UNL1       -0.2164
     13 N          62.3720   85.0952   12.9401 N.ar    1  UNL1       -0.1684
     14 C          64.0568   90.6482   12.6567 C.ar    1  UNL1        0.1171
     15 C          64.3282   90.4193   14.1141 C.ar    1  UNL1        0.0223
     16 C          65.2027   91.3730   14.8729 C.ar    1  UNL1        0.0032
     17 C          65.8058   92.5554   14.1745 C.ar    1  UNL1        0.0207
     18 C          65.5344   92.7843   12.7171 C.ar    1  UNL1        0.0989
     19 N          64.6599   91.8307   11.9583 N.ar    1  UNL1       -0.2407
     20 N          60.3300   89.7861    9.1400 N.am    1  UNL1       -0.2689
     21 C          59.8366   88.8966    8.0375 C.2     1  UNL1        0.2316
     22 O          60.3323   87.4846    7.9346 O.2     1  UNL1       -0.2744
     23 H          60.0047   90.7129    9.2076 H       1  UNL1        0.1563
     24 C          58.8478   89.4191    7.0380 C.3     1  UNL1        0.1117
     25 C          59.3051   90.3253    5.9336 C.ar    1  UNL1       -0.0130
     26 C          60.7458   90.3307    5.5161 C.ar    1  UNL1       -0.0025
     27 C          61.2032   91.2369    4.4117 C.ar    1  UNL1        0.0180
     28 C          60.2199   92.1376    3.7249 C.ar    1  UNL1        0.1057
     29 C          58.7792   92.1323    4.1424 C.ar    1  UNL1        0.0180
     30 C          58.3218   91.2261    5.2468 C.ar    1  UNL1       -0.0025
     31 S          60.6773   93.0438    2.6205 S.O2    1  UNL1        0.0104
     32 C          61.1347   93.9500    1.5161 C.3     1  UNL1        0.1816
     33 O          62.0924   92.5977    2.8405 O.2     1  UNL1       -0.1686
     34 O          59.2622   93.4899    2.4005 O.2     1  UNL1       -0.1686
@<TRIPOS>BOND
     1     7     8    1
     2     8     9   ar
     3     9    10   ar
     4    10    11    1
     5    10    12   ar
     6    12     1    1
     7     1     2   ar
     8     2     3   ar
     9     3    20    1
    10    20    21   am
    11    21    22    2
    12    21    24    1
    13    24    25    1
    14    25    26   ar
    15    26    27   ar
    16    27    28   ar
    17    28    31    1
    18    31    32    1
    19    31    33    2
    20    31    34    2
    21    28    29   ar
    22    29    30   ar
    23     3     4   ar
    24     4     5   ar
    25     5    14    1
    26    14    15   ar
    27    15    16   ar
    28    16    17   ar
    29    17    18   ar
    30    18    19   ar
    31     5     6   ar
    32    12    13   ar
    33    13     8   ar
    34     6     1   ar
    35    30    25   ar
    36    19    14   ar
    37    20    23    1
@<TRIPOS>MOLECULE
*****
 34 37 0 0 0
SMALL
GASTEIGER

@<TRIPOS>ATOM
      1 C          62.3035   85.4932   11.3377 C.ar    1  UNL1        0.1679
      2 C          61.4076   85.7178   10.1559 C.ar    1  UNL1        0.0733
      3 C          61.1332   87.1126    9.6771 C.ar    1  UNL1        0.1390
      4 N          61.7547   88.2827   10.3802 N.ar    1  UNL1       -0.2101
      5 C          62.6507   88.0582   11.5620 C.ar    1  UNL1        0.1828
      6 N          62.9251   86.6634   12.0408 N.ar    1  UNL1       -0.2061
      7 C          62.2898   81.0905   14.2527 C.3     1  UNL1        0.0540
      8 C          62.5717   82.0747   13.1564 C.ar    1  UNL1        0.0805
      9 C          63.4289   81.8293   11.9501 C.ar    1  UNL1        0.0312
     10 C          63.4328   83.0800   11.1221 C.ar    1  UNL1        0.0637
     11 C          64.1633   83.2776    9.8270 C.3     1  UNL1        0.0522
     12 N          62.5780   84.0984   11.8165 N.ar    1  UNL1       -0.2164
     13 N          62.0458   83.4770   13.0738 N.ar    1  UNL1       -0.1684
     14 C          63.2723   89.2283   12.2651 C.ar    1  UNL1        0.1171
     15 C          63.4693   90.5237   11.5350 C.ar    1  UNL1        0.0223
     16 C          64.0908   91.6939   12.2380 C.ar    1  UNL1        0.0032
     17 C          64.5154   91.5687   13.6712 C.ar    1  UNL1        0.0207
     18 C          64.3184   90.2733   14.4013 C.ar    1  UNL1        0.0989
     19 N          63.6968   89.1031   13.6982 N.ar    1  UNL1       -0.2407
     20 N          60.2372   87.3372    8.4952 N.am    1  UNL1       -0.2689
     21 C          59.7544   88.7202    8.1722 C.2     1  UNL1        0.2316
     22 O          60.1677   89.8785    9.0310 O.2     1  UNL1       -0.2744
     23 H          59.9660   86.5770    7.9315 H       1  UNL1        0.1563
     24 C          58.8585   88.9449    6.9903 C.3     1  UNL1        0.1117
     25 C          59.1853   90.0181    5.9947 C.ar    1  UNL1       -0.0130
     26 C          58.0920   90.8773    5.4321 C.ar    1  UNL1       -0.0025
     27 C          58.4188   91.9506    4.4365 C.ar    1  UNL1        0.0180
     28 C          59.8389   92.1647    4.0035 C.ar    1  UNL1        0.1057
     29 C          60.9322   91.3055    4.5661 C.ar    1  UNL1        0.0180
     30 C          60.6054   90.2322    5.5617 C.ar    1  UNL1       -0.0025
     31 S          60.1657   93.2380    3.0079 S.O2    1  UNL1        0.0104
     32 C          60.4925   94.3113    2.0122 C.3     1  UNL1        0.1816
     33 O          60.7057   92.2014    2.0677 O.2     1  UNL1       -0.1686
     34 O          59.6257   94.2746    3.9480 O.2     1  UNL1       -0.1686
@<TRIPOS>BOND
     1     7     8    1
     2     8     9   ar
     3     9    10   ar
     4    10    11    1
     5    10    12   ar
     6    12     1    1
     7     1     2   ar
     8     2     3   ar
     9     3    20    1
    10    20    21   am
    11    21    22    2
    12    21    24    1
    13    24    25    1
    14    25    26   ar
    15    26    27   ar
    16    27    28   ar
    17    28    31    1
    18    31    32    1
    19    31    33    2
    20    31    34    2
    21    28    29   ar
    22    29    30   ar
    23     3     4   ar
    24     4     5   ar
    25     5    14    1
    26    14    15   ar
    27    15    16   ar
    28    16    17   ar
    29    17    18   ar
    30    18    19   ar
    31     5     6   ar
    32    12    13   ar
    33    13     8   ar
    34     6     1   ar
    35    30    25   ar
    36    19    14   ar
    37    20    23    1
@<TRIPOS>MOLECULE
*****
 34 37 0 0 0
SMALL
GASTEIGER

@<TRIPOS>ATOM
      1 C          62.1368   85.9589    9.9002 C.ar    1  UNL1        0.1679
      2 C          62.3409   87.3732   10.3565 C.ar    1  UNL1        0.0733
      3 C          62.7995   87.6504   11.7575 C.ar    1  UNL1        0.1390
      4 N          63.0540   86.5134   12.7022 N.ar    1  UNL1       -0.2101
      5 C          62.8499   85.0992   12.2459 C.ar    1  UNL1        0.1828
      6 N          62.3913   84.8219   10.8449 N.ar    1  UNL1       -0.2061
      7 C          61.9687   84.1856    4.9295 C.3     1  UNL1        0.0540
      8 C          61.6009   84.8665    6.2144 C.ar    1  UNL1        0.0805
      9 C          60.3439   85.6434    6.4722 C.ar    1  UNL1        0.0312
     10 C          60.3916   86.1472    7.8842 C.ar    1  UNL1        0.0637
     11 C          59.3379   86.9717    8.5623 C.3     1  UNL1        0.0522
     12 N          61.6782   85.6816    8.4992 N.ar    1  UNL1       -0.2164
     13 N          62.4255   84.8902    7.4672 N.ar    1  UNL1       -0.1684
     14 C          63.1044   83.9622   13.1906 C.ar    1  UNL1        0.1171
     15 C          62.6873   82.5702   12.8185 C.ar    1  UNL1        0.0223
     16 C          62.9418   81.4332   13.7632 C.ar    1  UNL1        0.0032
     17 C          63.6134   81.6882   15.0800 C.ar    1  UNL1        0.0207
     18 C          64.0306   83.0801   15.4520 C.ar    1  UNL1        0.0989
     19 N          63.7761   84.2171   14.5073 N.ar    1  UNL1       -0.2407
     20 N          63.0036   89.0647   12.2138 N.am    1  UNL1       -0.2689
     21 C          63.8274   89.3472   13.4352 C.2     1  UNL1        0.2316
     22 O          64.4469   88.2153   14.2002 O.2     1  UNL1       -0.2744
     23 H          62.5970   89.8075   11.7117 H       1  UNL1        0.1563
     24 C          64.0315   90.7614   13.8915 C.3     1  UNL1        0.1117
     25 C          64.7165   91.7480   12.9930 C.ar    1  UNL1       -0.0130
     26 C          64.3735   91.7971   11.5335 C.ar    1  UNL1       -0.0025
     27 C          65.0585   92.7837   10.6350 C.ar    1  UNL1        0.0180
     28 C          66.0864   93.7212   11.1958 C.ar    1  UNL1        0.1057
     29 C          66.4294   93.6721   12.6553 C.ar    1  UNL1        0.0180
     30 C          65.7444   92.6855   13.5539 C.ar    1  UNL1       -0.0025
     31 S          66.7713   94.7078   10.2972 S.O2    1  UNL1        0.0104
     32 C          67.4563   95.6944    9.3986 C.3     1  UNL1        0.1816
     33 O          67.2156   93.5867    9.4050 O.2     1  UNL1       -0.1686
     34 O          66.3271   95.8288   11.1894 O.2     1  UNL1       -0.1686
@<TRIPOS>BOND
     1     7     8    1
     2     8     9   ar
     3     9    10   ar
     4    10    11    1
     5    10    12   ar
     6    12     1    1
     7     1     2   ar
     8     2     3   ar
     9     3    20    1
    10    20    21   am
    11    21    22    2
    12    21    24    1
    13    24    25    1
    14    25    26   ar
    15    26    27   ar
    16    27    28   ar
    17    28    31    1
    18    31    32    1
    19    31    33    2
    20    31    34    2
    21    28    29   ar
    22    29    30   ar
    23     3     4   ar
    24     4     5   ar
    25     5    14    1
    26    14    15   ar
    27    15    16   ar
    28    16    17   ar
    29    17    18   ar
    30    18    19   ar
    31     5     6   ar
    32    12    13   ar
    33    13     8   ar
    34     6     1   ar
    35    30    25   ar
    36    19    14   ar
    37    20    23    1
@<TRIPOS>MOLECULE
*****
 34 37 0 0 0
SMALL
GASTEIGER

@<TRIPOS>ATOM
      1 C          60.9524   88.3105    9.5331 C.ar    1  UNL1        0.1679
      2 C          61.2267   89.3306   10.5980 C.ar    1  UNL1        0.0733
      3 C          62.0096   88.9483   11.8189 C.ar    1  UNL1        0.1390
      4 N          62.5183   87.5458   11.9749 N.ar    1  UNL1       -0.2101
      5 C          62.2440   86.5257   10.9100 C.ar    1  UNL1        0.1828
      6 N          61.4610   86.9081    9.6891 N.ar    1  UNL1       -0.2061
      7 C          58.9531   91.0972    5.5182 C.3     1  UNL1        0.0540
      8 C          59.2504   89.9737    6.4667 C.ar    1  UNL1        0.0805
      9 C          58.6785   88.5886    6.3997 C.ar    1  UNL1        0.0312
     10 C          59.2465   87.7970    7.5402 C.ar    1  UNL1        0.0637
     11 C          58.9446   86.3616    7.8538 C.3     1  UNL1        0.0522
     12 N          60.1694   88.6929    8.3121 N.ar    1  UNL1       -0.2164
     13 N          60.1718   90.0381    7.6486 N.ar    1  UNL1       -0.1684
     14 C          62.7527   85.1232   11.0660 C.ar    1  UNL1        0.1171
     15 C          63.4584   84.4503    9.9263 C.ar    1  UNL1        0.0223
     16 C          63.9671   83.0478   10.0824 C.ar    1  UNL1        0.0032
     17 C          63.7700   82.3183   11.3781 C.ar    1  UNL1        0.0207
     18 C          63.0642   82.9912   12.5177 C.ar    1  UNL1        0.0989
     19 N          62.5555   84.3937   12.3617 N.ar    1  UNL1       -0.2407
     20 N          62.2839   89.9684   12.8839 N.am    1  UNL1       -0.2689
     21 C          63.2316   89.6491   14.0019 C.2     1  UNL1        0.2316
     22 O          63.9050   88.3098   14.0549 O.2     1  UNL1       -0.2744
     23 H          61.8420   90.8474   12.8491 H       1  UNL1        0.1563
     24 C          63.5060   90.6692   15.0669 C.3     1  UNL1        0.1117
     25 C          64.8511   91.3285   15.1453 C.ar    1  UNL1       -0.0130
     26 C          65.8332   91.1646   14.0235 C.ar    1  UNL1       -0.0025
     27 C          67.1782   91.8239   14.1019 C.ar    1  UNL1        0.0180
     28 C          67.5412   92.6470   15.3022 C.ar    1  UNL1        0.1057
     29 C          66.5591   92.8109   16.4241 C.ar    1  UNL1        0.0180
     30 C          65.2140   92.1516   16.3457 C.ar    1  UNL1       -0.0025
     31 S          68.8863   93.3063   15.3806 S.O2    1  UNL1        0.0104
     32 C          70.2313   93.9655   15.4590 C.3     1  UNL1        0.1816
     33 O          68.3715   94.2300   16.4444 O.2     1  UNL1       -0.1686
     34 O          69.4010   92.3825   14.3168 O.2     1  UNL1       -0.1686
@<TRIPOS>BOND
     1     7     8    1
     2     8     9   ar
     3     9    10   ar
     4    10    11    1
     5    10    12   ar
     6    12     1    1
     7     1     2   ar
     8     2     3   ar
     9     3    20    1
    10    20    21   am
    11    21    22    2
    12    21    24    1
    13    24    25    1
    14    25    26   ar
    15    26    27   ar
    16    27    28   ar
    17    28    31    1
    18    31    32    1
    19    31    33    2
    20    31    34    2
    21    28    29   ar
    22    29    30   ar
    23     3     4   ar
    24     4     5   ar
    25     5    14    1
    26    14    15   ar
    27    15    16   ar
    28    16    17   ar
    29    17    18   ar
    30    18    19   ar
    31     5     6   ar
    32    12    13   ar
    33    13     8   ar
    34     6     1   ar
    35    30    25   ar
    36    19    14   ar
    37    20    23    1
@<TRIPOS>MOLECULE
*****
 34 37 0 0 0
SMALL
GASTEIGER

@<TRIPOS>ATOM
      1 C          61.9138   89.2891   10.0385 C.ar    1  UNL1        0.1679
      2 C          62.1170   88.1692   11.0154 C.ar    1  UNL1        0.0733
      3 C          63.1218   88.3105   12.1200 C.ar    1  UNL1        0.1390
      4 N          63.9235   89.5719   12.2477 N.ar    1  UNL1       -0.2101
      5 C          63.7204   90.6918   11.2708 C.ar    1  UNL1        0.1828
      6 N          62.7155   90.5505   10.1662 N.ar    1  UNL1       -0.2061
      7 C          58.6975   90.4054    6.0023 C.3     1  UNL1        0.0540
      8 C          59.4305   89.6609    7.0786 C.ar    1  UNL1        0.0805
      9 C          59.2944   88.1997    7.3894 C.ar    1  UNL1        0.0312
     10 C          60.2081   87.8827    8.5360 C.ar    1  UNL1        0.0637
     11 C          60.3892   86.5367    9.1728 C.3     1  UNL1        0.0522
     12 N          60.9088   89.1478    8.9338 N.ar    1  UNL1       -0.2164
     13 N          60.4282   90.2468    8.0332 N.ar    1  UNL1       -0.1684
     14 C          64.5221   91.9532   11.3985 C.ar    1  UNL1        0.1171
     15 C          65.2059   92.2794   12.6931 C.ar    1  UNL1        0.0223
     16 C          66.0076   93.5407   12.8208 C.ar    1  UNL1        0.0032
     17 C          66.1255   94.4758   11.6540 C.ar    1  UNL1        0.0207
     18 C          65.4416   94.1496   10.3594 C.ar    1  UNL1        0.0989
     19 N          64.6399   92.8883   10.2317 N.ar    1  UNL1       -0.2407
     20 N          63.3251   87.1905   13.0969 N.am    1  UNL1       -0.2689
     21 C          64.0904   87.4306   14.3645 C.2     1  UNL1        0.2316
     22 O          64.6524   88.7906   14.6551 O.2     1  UNL1       -0.2744
     23 H          62.9562   86.2979   12.9061 H       1  UNL1        0.1563
     24 C          64.2936   86.3106   15.3414 C.3     1  UNL1        0.1117
     25 C          63.8778   84.9154   14.9800 C.ar    1  UNL1       -0.0130
     26 C          62.5794   84.3640   15.4899 C.ar    1  UNL1       -0.0025
     27 C          62.1637   82.9688   15.1285 C.ar    1  UNL1        0.0180
     28 C          63.0463   82.1251   14.2574 C.ar    1  UNL1        0.1057
     29 C          64.3448   82.6765   13.7475 C.ar    1  UNL1        0.0180
     30 C          64.7606   84.0717   14.1088 C.ar    1  UNL1       -0.0025
     31 S          62.6305   80.7299   13.8960 S.O2    1  UNL1        0.0104
     32 C          62.2147   79.3347   13.5347 C.3     1  UNL1        0.1816
     33 O          61.2876   81.2414   13.4659 O.2     1  UNL1       -0.1686
     34 O          63.9734   80.2183   14.3261 O.2     1  UNL1       -0.1686
@<TRIPOS>BOND
     1     7     8    1
     2     8     9   ar
     3     9    10   ar
     4    10    11    1
     5    10    12   ar
     6    12     1    1
     7     1     2   ar
     8     2     3   ar
     9     3    20    1
    10    20    21   am
    11    21    22    2
    12    21    24    1
    13    24    25    1
    14    25    26   ar
    15    26    27   ar
    16    27    28   ar
    17    28    31    1
    18    31    32    1
    19    31    33    2
    20    31    34    2
    21    28    29   ar
    22    29    30   ar
    23     3     4   ar
    24     4     5   ar
    25     5    14    1
    26    14    15   ar
    27    15    16   ar
    28    16    17   ar
    29    17    18   ar
    30    18    19   ar
    31     5     6   ar
    32    12    13   ar
    33    13     8   ar
    34     6     1   ar
    35    30    25   ar
    36    19    14   ar
    37    20    23    1
