@<TRIPOS>MOLECULE
*****
 27 30 0 0 0
SMALL
GASTEIGER

@<TRIPOS>ATOM
      1 C          64.2895   89.4980   14.9247 C.ar    1  UNL1        0.0192
      2 C          64.5945   88.1183   14.4212 C.ar    1  UNL1        0.0047
      3 C          64.0088   86.9218   15.1107 C.ar    1  UNL1        0.0369
      4 C          63.1182   87.1050   16.3037 C.ar    1  UNL1        0.1386
      5 C          62.8132   88.4847   16.8072 C.ar    1  UNL1        0.0369
      6 C          63.3988   89.6811   16.1177 C.ar    1  UNL1        0.0047
      7 C          67.4944   93.5880   14.9548 C.3     1  UNL1        0.1571
      8 N          66.4776   92.7394   14.2503 N.ar    1  UNL1       -0.2149
      9 N          65.8919   91.5430   14.9397 N.ar    1  UNL1       -0.1671
     10 C          64.8752   90.6945   14.2352 C.ar    1  UNL1        0.0968
     11 C          64.4441   91.0425   12.8413 C.ar    1  UNL1       -0.0022
     12 C          65.0298   92.2390   12.1518 C.ar    1  UNL1        0.0329
     13 C          66.0465   93.0875   12.8563 C.ar    1  UNL1        0.2721
     14 O          66.6323   94.2841   12.1669 O.2     1  UNL1       -0.2659
     15 C          64.4158   92.3340   10.7865 C.3     1  UNL1        0.0313
     16 C          63.4507   91.1962   10.6322 C.3     1  UNL1        0.0095
     17 C          63.4682   90.3980   11.9021 C.3     1  UNL1        0.0281
     18 O          62.5325   85.9085   16.9931 O.3     1  UNL1       -0.4754
     19 C          62.8271   84.5294   16.4819 C.3     1  UNL1        0.2068
     20 C          62.3474   84.1151   15.1225 C.3     1  UNL1        0.0646
     21 C          63.2498   83.3329   14.2148 C.3     1  UNL1        0.0759
     22 N          63.2997   83.6520   12.7500 N.3     1  UNL1       -0.2726
     23 C          64.1128   82.7972   11.8235 C.3     1  UNL1        0.0721
     24 C          64.1627   83.1163   10.3587 C.3     1  UNL1        0.0174
     25 C          63.3996   84.2900    9.8203 C.3     1  UNL1        0.0029
     26 C          62.5866   85.1448   10.7468 C.3     1  UNL1        0.0174
     27 C          62.5366   84.8258   12.2116 C.3     1  UNL1        0.0721
@<TRIPOS>BOND
     1     7     8    1
     2     8     9   ar
     3     9    10   ar
     4    10     1    1
     5     1     2   ar
     6     2     3   ar
     7     3     4   ar
     8     4    18    1
     9    18    19    1
    10    19    20    1
    11    20    21    1
    12    21    22    1
    13    22    23    1
    14    23    24    1
    15    24    25    1
    16    25    26    1
    17    26    27    1
    18     4     5   ar
    19     5     6   ar
    20    10    11   ar
    21    11    12   ar
    22    12    13   ar
    23    13    14    2
    24    12    15    1
    25    15    16    1
    26    16    17    1
    27    13     8   ar
    28     6     1   ar
    29    17    11    1
    30    27    22    1
@<TRIPOS>MOLECULE
*****
 27 30 0 0 0
SMALL
GASTEIGER

@<TRIPOS>ATOM
      1 C          64.4190   90.0806   14.7851 C.ar    1  UNL1        0.0192
      2 C          63.6062   90.3593   16.0146 C.ar    1  UNL1        0.0047
      3 C          63.0005   89.2245   16.7864 C.ar    1  UNL1        0.0369
      4 C          63.2076   87.8112   16.3287 C.ar    1  UNL1        0.1386
      5 C          64.0204   87.5325   15.0991 C.ar    1  UNL1        0.0369
      6 C          64.6261   88.6671   14.3274 C.ar    1  UNL1        0.0047
      7 C          64.7999   92.8443   10.4014 C.3     1  UNL1        0.1571
      8 N          65.2151   92.5971   11.8215 N.ar    1  UNL1       -0.2149
      9 N          64.6095   91.4625   12.5933 N.ar    1  UNL1       -0.1671
     10 C          65.0247   91.2152   14.0133 C.ar    1  UNL1        0.0968
     11 C          66.0456   92.1027   14.6615 C.ar    1  UNL1       -0.0022
     12 C          66.6513   93.2373   13.8897 C.ar    1  UNL1        0.0329
     13 C          66.2361   93.4846   12.4697 C.ar    1  UNL1        0.2721
     14 O          66.8418   94.6192   11.6978 O.2     1  UNL1       -0.2659
     15 C          67.6270   93.9395   14.7868 C.3     1  UNL1        0.0313
     16 C          67.6244   93.2388   16.1131 C.3     1  UNL1        0.0095
     17 C          66.6470   92.1036   16.0357 C.3     1  UNL1        0.0281
     18 O          62.6019   86.6766   17.1004 O.3     1  UNL1       -0.4754
     19 C          63.0417   85.2677   16.8321 C.3     1  UNL1        0.2068
     20 C          62.3472   84.4524   15.7819 C.3     1  UNL1        0.0646
     21 C          63.0986   83.3857   15.0419 C.3     1  UNL1        0.0759
     22 N          63.2755   83.4866   13.5558 N.3     1  UNL1       -0.2726
     23 C          62.5991   84.5871   12.7931 C.3     1  UNL1        0.0721
     24 C          62.7759   84.6881   11.3071 C.3     1  UNL1        0.0174
     25 C          63.6290   83.6887   10.5836 C.3     1  UNL1        0.0029
     26 C          64.3054   82.5883   11.3462 C.3     1  UNL1        0.0174
     27 C          64.1286   82.4873   12.8324 C.3     1  UNL1        0.0721
@<TRIPOS>BOND
     1     7     8    1
     2     8     9   ar
     3     9    10   ar
     4    10     1    1
     5     1     2   ar
     6     2     3   ar
     7     3     4   ar
     8     4    18    1
     9    18    19    1
    10    19    20    1
    11    20    21    1
    12    21    22    1
    13    22    23    1
    14    23    24    1
    15    24    25    1
    16    25    26    1
    17    26    27    1
    18     4     5   ar
    19     5     6   ar
    20    10    11   ar
    21    11    12   ar
    22    12    13   ar
    23    13    14    2
    24    12    15    1
    25    15    16    1
    26    16    17    1
    27    13     8   ar
    28     6     1   ar
    29    17    11    1
    30    27    22    1
@<TRIPOS>MOLECULE
*****
 27 30 0 0 0
SMALL
GASTEIGER

@<TRIPOS>ATOM
      1 C          62.9805   89.3030   11.9715 C.ar    1  UNL1        0.0192
      2 C          63.1847   90.7638   11.6986 C.ar    1  UNL1        0.0047
      3 C          63.9364   91.6123   12.6809 C.ar    1  UNL1        0.0369
      4 C          64.4839   91.0002   13.9361 C.ar    1  UNL1        0.1386
      5 C          64.2796   89.5394   14.2090 C.ar    1  UNL1        0.0369
      6 C          63.5280   88.6908   13.2268 C.ar    1  UNL1        0.0047
      7 C          59.8104   88.8996    7.8742 C.3     1  UNL1        0.1571
      8 N          60.6438   88.2527    8.9406 N.ar    1  UNL1       -0.2149
      9 N          61.3955   89.1012    9.9229 N.ar    1  UNL1       -0.1671
     10 C          62.2289   88.4544   10.9892 C.ar    1  UNL1        0.0968
     11 C          62.3106   86.9590   11.0733 C.ar    1  UNL1       -0.0022
     12 C          61.5589   86.1104   10.0910 C.ar    1  UNL1        0.0329
     13 C          60.7255   86.7572    9.0246 C.ar    1  UNL1        0.2721
     14 O          59.9738   85.9087    8.0423 O.2     1  UNL1       -0.2659
     15 C          61.8290   84.6719   10.4191 C.3     1  UNL1        0.0313
     16 C          62.7477   84.6315   11.6042 C.3     1  UNL1        0.0095
     17 C          63.0453   86.0450   12.0085 C.3     1  UNL1        0.0281
     18 O          65.2355   91.8487   14.9184 O.3     1  UNL1       -0.4754
     19 C          66.6462   92.2654   14.6243 C.3     1  UNL1        0.2068
     20 C          66.9170   93.5889   13.9726 C.3     1  UNL1        0.0646
     21 C          66.2353   93.9441   12.6845 C.3     1  UNL1        0.0759
     22 N          66.9219   93.6850   11.3763 N.3     1  UNL1       -0.2726
     23 C          67.0515   94.7864   10.3663 C.3     1  UNL1        0.0721
     24 C          67.7381   94.5274    9.0581 C.3     1  UNL1        0.0174
     25 C          68.2951   93.1669    8.7598 C.3     1  UNL1        0.0029
     26 C          68.1654   92.0655    9.7698 C.3     1  UNL1        0.0174
     27 C          67.4788   92.3246   11.0781 C.3     1  UNL1        0.0721
@<TRIPOS>BOND
     1     7     8    1
     2     8     9   ar
     3     9    10   ar
     4    10     1    1
     5     1     2   ar
     6     2     3   ar
     7     3     4   ar
     8     4    18    1
     9    18    19    1
    10    19    20    1
    11    20    21    1
    12    21    22    1
    13    22    23    1
    14    23    24    1
    15    24    25    1
    16    25    26    1
    17    26    27    1
    18     4     5   ar
    19     5     6   ar
    20    10    11   ar
    21    11    12   ar
    22    12    13   ar
    23    13    14    2
    24    12    15    1
    25    15    16    1
    26    16    17    1
    27    13     8   ar
    28     6     1   ar
    29    17    11    1
    30    27    22    1
@<TRIPOS>MOLECULE
*****
 27 30 0 0 0
SMALL
GASTEIGER

@<TRIPOS>ATOM
      1 C          63.7361   88.3282   13.3928 C.ar    1  UNL1        0.0192
      2 C          63.6137   89.5092   12.4762 C.ar    1  UNL1        0.0047
      3 C          63.9704   90.8806   12.9683 C.ar    1  UNL1        0.0369
      4 C          64.4496   91.0709   14.3769 C.ar    1  UNL1        0.1386
      5 C          64.5720   89.8898   15.2935 C.ar    1  UNL1        0.0369
      6 C          64.2153   88.5185   14.8014 C.ar    1  UNL1        0.0047
      7 C          63.7918   83.1694   14.0122 C.3     1  UNL1        0.1571
      8 N          63.4072   84.3775   13.2105 N.ar    1  UNL1       -0.2149
      9 N          63.7639   85.7488   13.7024 N.ar    1  UNL1       -0.1671
     10 C          63.3793   86.9568   12.9007 C.ar    1  UNL1        0.0968
     11 C          62.6380   86.7935   11.6070 C.ar    1  UNL1       -0.0022
     12 C          62.2812   85.4221   11.1150 C.ar    1  UNL1        0.0329
     13 C          62.6658   84.2141   11.9167 C.ar    1  UNL1        0.2721
     14 O          62.3091   82.8426   11.4247 O.2     1  UNL1       -0.2659
     15 C          61.5527   85.5719    9.8124 C.3     1  UNL1        0.0313
     16 C          61.4592   87.0359    9.4993 C.3     1  UNL1        0.0095
     17 C          62.1299   87.7909   10.6085 C.3     1  UNL1        0.0281
     18 O          64.8063   92.4422   14.8689 O.3     1  UNL1       -0.4754
     19 C          66.2465   92.8412   14.9993 C.3     1  UNL1        0.2068
     20 C          66.8840   93.7029   13.9501 C.3     1  UNL1        0.0646
     21 C          66.1813   93.9410   12.6464 C.3     1  UNL1        0.0759
     22 N          66.8915   93.6755   11.3522 N.3     1  UNL1       -0.2726
     23 C          67.4375   92.3086   11.0630 C.3     1  UNL1        0.0721
     24 C          68.1477   92.0431    9.7689 C.3     1  UNL1        0.0174
     25 C          68.3120   93.1444    8.7638 C.3     1  UNL1        0.0029
     26 C          67.7661   94.5112    9.0530 C.3     1  UNL1        0.0174
     27 C          67.0558   94.7768   10.3472 C.3     1  UNL1        0.0721
@<TRIPOS>BOND
     1     7     8    1
     2     8     9   ar
     3     9    10   ar
     4    10     1    1
     5     1     2   ar
     6     2     3   ar
     7     3     4   ar
     8     4    18    1
     9    18    19    1
    10    19    20    1
    11    20    21    1
    12    21    22    1
    13    22    23    1
    14    23    24    1
    15    24    25    1
    16    25    26    1
    17    26    27    1
    18     4     5   ar
    19     5     6   ar
    20    10    11   ar
    21    11    12   ar
    22    12    13   ar
    23    13    14    2
    24    12    15    1
    25    15    16    1
    26    16    17    1
    27    13     8   ar
    28     6     1   ar
    29    17    11    1
    30    27    22    1
@<TRIPOS>MOLECULE
*****
 27 30 0 0 0
SMALL
GASTEIGER

@<TRIPOS>ATOM
      1 C          62.1464   90.0244   11.7113 C.ar    1  UNL1        0.0192
      2 C          62.5677   90.0329   10.2717 C.ar    1  UNL1        0.0047
      3 C          61.6355   89.5197    9.2145 C.ar    1  UNL1        0.0369
      4 C          60.2821   88.9982    9.5967 C.ar    1  UNL1        0.1386
      5 C          59.8608   88.9897   11.0364 C.ar    1  UNL1        0.0369
      6 C          60.7929   89.5028   12.0936 C.ar    1  UNL1        0.0047
      7 C          63.5806   90.2983   16.6981 C.3     1  UNL1        0.1571
      8 N          63.7956   90.6745   15.2619 N.ar    1  UNL1       -0.2149
      9 N          62.8635   90.1614   14.2047 N.ar    1  UNL1       -0.1671
     10 C          63.0785   90.5375   12.7686 C.ar    1  UNL1        0.0968
     11 C          64.2256   91.4268   12.3899 C.ar    1  UNL1       -0.0022
     12 C          65.1577   91.9399   13.4472 C.ar    1  UNL1        0.0329
     13 C          64.9427   91.5638   14.8832 C.ar    1  UNL1        0.2721
     14 O          65.8748   92.0768   15.9407 O.2     1  UNL1       -0.2659
     15 C          66.1936   92.7933   12.7775 C.3     1  UNL1        0.0313
     16 C          65.9017   92.8076   11.3062 C.3     1  UNL1        0.0095
     17 C          64.6854   91.9631   11.0666 C.3     1  UNL1        0.0281
     18 O          59.3500   88.4851    8.5395 O.3     1  UNL1       -0.4754
     19 C          59.7394   87.2991    7.7077 C.3     1  UNL1        0.2068
     20 C          60.3643   86.1001    8.3571 C.3     1  UNL1        0.0646
     21 C          61.8533   86.0279    8.5235 C.3     1  UNL1        0.0759
     22 N          62.4424   85.3107    9.7018 N.3     1  UNL1       -0.2726
     23 C          63.4044   84.1799    9.4873 C.3     1  UNL1        0.0721
     24 C          63.9935   83.4627   10.6655 C.3     1  UNL1        0.0174
     25 C          63.6207   83.8761   12.0584 C.3     1  UNL1        0.0029
     26 C          62.6588   85.0069   12.2730 C.3     1  UNL1        0.0174
     27 C          62.0696   85.7242   11.0947 C.3     1  UNL1        0.0721
@<TRIPOS>BOND
     1     7     8    1
     2     8     9   ar
     3     9    10   ar
     4    10     1    1
     5     1     2   ar
     6     2     3   ar
     7     3     4   ar
     8     4    18    1
     9    18    19    1
    10    19    20    1
    11    20    21    1
    12    21    22    1
    13    22    23    1
    14    23    24    1
    15    24    25    1
    16    25    26    1
    17    26    27    1
    18     4     5   ar
    19     5     6   ar
    20    10    11   ar
    21    11    12   ar
    22    12    13   ar
    23    13    14    2
    24    12    15    1
    25    15    16    1
    26    16    17    1
    27    13     8   ar
    28     6     1   ar
    29    17    11    1
    30    27    22    1
@<TRIPOS>MOLECULE
*****
 27 30 0 0 0
SMALL
GASTEIGER

@<TRIPOS>ATOM
      1 C          62.6710   88.8887   10.7601 C.ar    1  UNL1        0.0192
      2 C          62.9165   90.3033   10.3259 C.ar    1  UNL1        0.0047
      3 C          63.4325   91.3110   11.3099 C.ar    1  UNL1        0.0369
      4 C          63.7030   90.9041   12.7281 C.ar    1  UNL1        0.1386
      5 C          63.4573   89.4894   13.1623 C.ar    1  UNL1        0.0369
      6 C          62.9414   88.4817   12.1784 C.ar    1  UNL1        0.0047
      7 C          63.0049   84.2171    8.5095 C.3     1  UNL1        0.1571
      8 N          62.3219   85.5452    8.6509 N.ar    1  UNL1       -0.2149
      9 N          62.8379   86.5529    9.6348 N.ar    1  UNL1       -0.1671
     10 C          62.1550   87.8809    9.7761 C.ar    1  UNL1        0.0968
     11 C          60.9561   88.2012    8.9334 C.ar    1  UNL1       -0.0022
     12 C          60.4401   87.1934    7.9495 C.ar    1  UNL1        0.0329
     13 C          61.1230   85.8654    7.8081 C.ar    1  UNL1        0.2721
     14 O          60.6070   84.8576    6.8242 O.2     1  UNL1       -0.2659
     15 C          59.2473   87.7871    7.2603 C.3     1  UNL1        0.0313
     16 C          59.0262   89.1617    7.8183 C.3     1  UNL1        0.0095
     17 C          60.0822   89.4177    8.8524 C.3     1  UNL1        0.0281
     18 O          64.2189   91.9118   13.7121 O.3     1  UNL1       -0.4754
     19 C          65.6642   91.8964   14.1133 C.3     1  UNL1        0.2068
     20 C          66.5552   93.0476   13.7520 C.3     1  UNL1        0.0646
     21 C          66.2279   93.9059   12.5661 C.3     1  UNL1        0.0759
     22 N          66.9181   93.6691   11.2556 N.3     1  UNL1       -0.2726
     23 C          67.4960   92.3201   10.9453 C.3     1  UNL1        0.0721
     24 C          68.1862   92.0832    9.6349 C.3     1  UNL1        0.0174
     25 C          68.2986   93.1953    8.6346 C.3     1  UNL1        0.0029
     26 C          67.7207   94.5443    8.9448 C.3     1  UNL1        0.0174
     27 C          67.0305   94.7812   10.2553 C.3     1  UNL1        0.0721
@<TRIPOS>BOND
     1     7     8    1
     2     8     9   ar
     3     9    10   ar
     4    10     1    1
     5     1     2   ar
     6     2     3   ar
     7     3     4   ar
     8     4    18    1
     9    18    19    1
    10    19    20    1
    11    20    21    1
    12    21    22    1
    13    22    23    1
    14    23    24    1
    15    24    25    1
    16    25    26    1
    17    26    27    1
    18     4     5   ar
    19     5     6   ar
    20    10    11   ar
    21    11    12   ar
    22    12    13   ar
    23    13    14    2
    24    12    15    1
    25    15    16    1
    26    16    17    1
    27    13     8   ar
    28     6     1   ar
    29    17    11    1
    30    27    22    1
@<TRIPOS>MOLECULE
*****
 27 30 0 0 0
SMALL
GASTEIGER

@<TRIPOS>ATOM
      1 C          63.2083   90.2505   11.3869 C.ar    1  UNL1        0.0192
      2 C          62.3940   90.6683   10.1985 C.ar    1  UNL1        0.0047
      3 C          61.4360   89.7012    9.5683 C.ar    1  UNL1        0.0369
      4 C          61.2923   88.3164   10.1265 C.ar    1  UNL1        0.1386
      5 C          62.1066   87.8986   11.3150 C.ar    1  UNL1        0.0369
      6 C          63.0645   88.8656   11.9452 C.ar    1  UNL1        0.0047
      7 C          66.7097   94.0621   10.9265 C.3     1  UNL1        0.1571
      8 N          65.9169   93.1232   11.7870 N.ar    1  UNL1       -0.2149
      9 N          64.9590   92.1563   11.1568 N.ar    1  UNL1       -0.1671
     10 C          64.1663   91.2175   12.0172 C.ar    1  UNL1        0.0968
     11 C          64.3315   91.2457   13.5077 C.ar    1  UNL1       -0.0022
     12 C          65.2895   92.2127   14.1380 C.ar    1  UNL1        0.0329
     13 C          66.0822   93.1515   13.2776 C.ar    1  UNL1        0.2721
     14 O          67.0403   94.1185   13.9078 O.2     1  UNL1       -0.2659
     15 C          65.2411   92.0115   15.6236 C.3     1  UNL1        0.0313
     16 C          64.2531   90.9202   15.9116 C.3     1  UNL1        0.0095
     17 C          63.6910   90.4468   14.6039 C.3     1  UNL1        0.0281
     18 O          60.3344   87.3494    9.4963 O.3     1  UNL1       -0.4754
     19 C          60.8546   86.1898    8.6996 C.3     1  UNL1        0.2068
     20 C          62.3315   86.0179    8.5021 C.3     1  UNL1        0.0646
     21 C          62.9599   84.6675    8.6808 C.3     1  UNL1        0.0759
     22 N          63.2452   84.1496   10.0593 N.3     1  UNL1       -0.2726
     23 C          64.2530   83.0560   10.2559 C.3     1  UNL1        0.0721
     24 C          64.5383   82.5380   11.6343 C.3     1  UNL1        0.0174
     25 C          63.8159   83.1135   12.8163 C.3     1  UNL1        0.0029
     26 C          62.8082   84.2071   12.6197 C.3     1  UNL1        0.0174
     27 C          62.5229   84.7251   11.2412 C.3     1  UNL1        0.0721
@<TRIPOS>BOND
     1     7     8    1
     2     8     9   ar
     3     9    10   ar
     4    10     1    1
     5     1     2   ar
     6     2     3   ar
     7     3     4   ar
     8     4    18    1
     9    18    19    1
    10    19    20    1
    11    20    21    1
    12    21    22    1
    13    22    23    1
    14    23    24    1
    15    24    25    1
    16    25    26    1
    17    26    27    1
    18     4     5   ar
    19     5     6   ar
    20    10    11   ar
    21    11    12   ar
    22    12    13   ar
    23    13    14    2
    24    12    15    1
    25    15    16    1
    26    16    17    1
    27    13     8   ar
    28     6     1   ar
    29    17    11    1
    30    27    22    1
@<TRIPOS>MOLECULE
*****
 27 30 0 0 0
SMALL
GASTEIGER

@<TRIPOS>ATOM
      1 C          62.7862   86.6949   11.9017 C.ar    1  UNL1        0.0192
      2 C          62.1691   86.9425   10.5571 C.ar    1  UNL1        0.0047
      3 C          62.1068   88.3361   10.0057 C.ar    1  UNL1        0.0369
      4 C          62.6615   89.4821   10.7988 C.ar    1  UNL1        0.1386
      5 C          63.2786   89.2344   12.1435 C.ar    1  UNL1        0.0369
      6 C          63.3410   87.8409   12.6949 C.ar    1  UNL1        0.0047
      7 C          62.2258   83.4009   15.8810 C.3     1  UNL1        0.1571
      8 N          62.5684   83.6544   14.4428 N.ar    1  UNL1       -0.2149
      9 N          62.5060   85.0478   13.8913 N.ar    1  UNL1       -0.1671
     10 C          62.8486   85.3013   12.4531 C.ar    1  UNL1        0.0968
     11 C          63.2535   84.1613   11.5664 C.ar    1  UNL1       -0.0022
     12 C          63.3159   82.7677   12.1179 C.ar    1  UNL1        0.0329
     13 C          62.9733   82.5142   13.5560 C.ar    1  UNL1        0.2721
     14 O          63.0357   81.1206   14.1076 O.2     1  UNL1       -0.2659
     15 C          63.7456   81.8502   11.0117 C.3     1  UNL1        0.0313
     16 C          63.9488   82.6768    9.7766 C.3     1  UNL1        0.0095
     17 C          63.6447   84.1051   10.1194 C.3     1  UNL1        0.0281
     18 O          62.5992   90.8756   10.2474 O.3     1  UNL1       -0.4754
     19 C          63.7510   91.8148   10.4505 C.3     1  UNL1        0.2068
     20 C          64.2457   92.1064   11.8362 C.3     1  UNL1        0.0646
     21 C          65.6790   92.4908   12.0556 C.3     1  UNL1        0.0759
     22 N          66.4310   93.2243   10.9850 N.3     1  UNL1       -0.2726
     23 C          67.4549   92.5031   10.1593 C.3     1  UNL1        0.0721
     24 C          68.2070   93.2366    9.0887 C.3     1  UNL1        0.0174
     25 C          67.9353   94.6913    8.8437 C.3     1  UNL1        0.0029
     26 C          66.9114   95.4125    9.6693 C.3     1  UNL1        0.0174
     27 C          66.1593   94.6790   10.7399 C.3     1  UNL1        0.0721
@<TRIPOS>BOND
     1     7     8    1
     2     8     9   ar
     3     9    10   ar
     4    10     1    1
     5     1     2   ar
     6     2     3   ar
     7     3     4   ar
     8     4    18    1
     9    18    19    1
    10    19    20    1
    11    20    21    1
    12    21    22    1
    13    22    23    1
    14    23    24    1
    15    24    25    1
    16    25    26    1
    17    26    27    1
    18     4     5   ar
    19     5     6   ar
    20    10    11   ar
    21    11    12   ar
    22    12    13   ar
    23    13    14    2
    24    12    15    1
    25    15    16    1
    26    16    17    1
    27    13     8   ar
    28     6     1   ar
    29    17    11    1
    30    27    22    1
@<TRIPOS>MOLECULE
*****
 27 30 0 0 0
SMALL
GASTEIGER

@<TRIPOS>ATOM
      1 C          63.7373   90.5488   12.0453 C.ar    1  UNL1        0.0192
      2 C          63.0486   90.8987   10.7595 C.ar    1  UNL1        0.0047
      3 C          62.1501   89.8989   10.0938 C.ar    1  UNL1        0.0369
      4 C          61.9402   88.5493   10.7138 C.ar    1  UNL1        0.1386
      5 C          62.6290   88.1994   11.9997 C.ar    1  UNL1        0.0369
      6 C          63.5274   89.1991   12.6654 C.ar    1  UNL1        0.0047
      7 C          65.9836   92.4215   16.3404 C.3     1  UNL1        0.1571
      8 N          65.7589   92.4849   14.8586 N.ar    1  UNL1       -0.2149
      9 N          64.8604   91.4852   14.1928 N.ar    1  UNL1       -0.1671
     10 C          64.6358   91.5485   12.7111 C.ar    1  UNL1        0.0968
     11 C          65.3096   92.6116   11.8951 C.ar    1  UNL1       -0.0022
     12 C          66.2082   93.6113   12.5609 C.ar    1  UNL1        0.0329
     13 C          66.4328   93.5480   14.0426 C.ar    1  UNL1        0.2721
     14 O          67.3313   94.5477   14.7085 O.2     1  UNL1       -0.2659
     15 C          66.7325   94.5388   11.5050 C.3     1  UNL1        0.0313
     16 C          66.1580   94.1123   10.1867 C.3     1  UNL1        0.0095
     17 C          65.2787   92.9212   10.4278 C.3     1  UNL1        0.0281
     18 O          61.0418   87.5496   10.0481 O.3     1  UNL1       -0.4754
     19 C          61.0018   86.1329   10.5396 C.3     1  UNL1        0.2068
     20 C          62.1396   85.2027   10.2399 C.3     1  UNL1        0.0646
     21 C          63.1206   84.8461   11.3172 C.3     1  UNL1        0.0759
     22 N          62.8051   83.7432   12.2836 N.3     1  UNL1       -0.2726
     23 C          62.6688   82.3322   11.7930 C.3     1  UNL1        0.0721
     24 C          62.3532   81.2293   12.7593 C.3     1  UNL1        0.0174
     25 C          62.1740   81.5372   14.2164 C.3     1  UNL1        0.0029
     26 C          62.3103   82.9481   14.7071 C.3     1  UNL1        0.0174
     27 C          62.6258   84.0511   13.7407 C.3     1  UNL1        0.0721
@<TRIPOS>BOND
     1     7     8    1
     2     8     9   ar
     3     9    10   ar
     4    10     1    1
     5     1     2   ar
     6     2     3   ar
     7     3     4   ar
     8     4    18    1
     9    18    19    1
    10    19    20    1
    11    20    21    1
    12    21    22    1
    13    22    23    1
    14    23    24    1
    15    24    25    1
    16    25    26    1
    17    26    27    1
    18     4     5   ar
    19     5     6   ar
    20    10    11   ar
    21    11    12   ar
    22    12    13   ar
    23    13    14    2
    24    12    15    1
    25    15    16    1
    26    16    17    1
    27    13     8   ar
    28     6     1   ar
    29    17    11    1
    30    27    22    1
